data_crystal_structure_P1

_symmetry_space_group_name_H-M     'P 1'
_symmetry_Int_Tables_number        1

_cell_length_a                     4.47589
_cell_length_b                     4.47589
_cell_length_c                     9.17560
_cell_angle_alpha                  90.00000
_cell_angle_beta                   90.00000
_cell_angle_gamma                  90.00000
_cell_volume                       183.82043
_cell_formula_units_Z              1

loop_
_space_group_symop_operation_xyz
x,y,z

loop_
_atom_site_label
_atom_site_type_symbol
_atom_site_fract_x
_atom_site_fract_y
_atom_site_fract_z
_atom_site_occupancy
Ba1    Ba    1.00000   0.50000   0.19539   1.00000
Ba2    Ba    0.50000   1.00000   0.80461   1.00000
Cu1    Cu    0.50000   1.00000   0.40355   1.00000
Cu2    Cu    1.00000   0.50000   0.59645   1.00000
S1      S    0.50000   0.50000   0.50000   1.00000
S2      S    1.00000   1.00000   0.50000   1.00000
S3      S    0.50000   1.00000   0.14996   1.00000
S4      S    1.00000   0.50000   0.85004   1.00000
loop_
_atom_site_aniso_label
_atom_site_aniso_U_11
_atom_site_aniso_U_22
_atom_site_aniso_U_33
_atom_site_aniso_U_23
_atom_site_aniso_U_13
_atom_site_aniso_U_12
   Ba1    0.01765    0.01765    0.02688    0.00000    0.00000   -0.00000
   Ba2    0.01765    0.01765    0.02688   -0.00000    0.00000   -0.00000
   Cu1    0.02739    0.02739    0.02700    0.00000    0.00000   -0.00000
   Cu2    0.02739    0.02739    0.02700    0.00000   -0.00000   -0.00000
    S1    0.03065    0.03065    0.02828    0.00000    0.00000   -0.00000
    S2    0.03065    0.03065    0.02828   -0.00000    0.00000   -0.00000
    S3    0.01827    0.01827    0.01759    0.00000    0.00000   -0.00000
    S4    0.01827    0.01827    0.01759    0.00000   -0.00000   -0.00000
