data_crystal_structure_P1

_symmetry_space_group_name_H-M     'P 1'
_symmetry_Int_Tables_number        1

_cell_length_a                     14.14253
_cell_length_b                     14.14253
_cell_length_c                     14.14253
_cell_angle_alpha                  18.00859
_cell_angle_beta                   18.00859
_cell_angle_gamma                  18.00859
_cell_volume                       236.06809
_cell_formula_units_Z              1

loop_
_space_group_symop_operation_xyz
x,y,z

loop_
_atom_site_label
_atom_site_type_symbol
_atom_site_fract_x
_atom_site_fract_y
_atom_site_fract_z
_atom_site_occupancy
Ge1    Ge    0.00000   0.00000   1.00000   1.00000
Bi1    Bi    0.42233   0.42233   0.42233   1.00000
Bi2    Bi    0.57767   0.57767   0.57767   1.00000
Te1    Te    0.13034   0.13034   0.13034   1.00000
Te2    Te    0.86966   0.86966   0.86966   1.00000
Te3    Te    0.29401   0.29401   0.29401   1.00000
Te4    Te    0.70599   0.70599   0.70599   1.00000
loop_
_atom_site_aniso_label
_atom_site_aniso_U_11
_atom_site_aniso_U_22
_atom_site_aniso_U_33
_atom_site_aniso_U_23
_atom_site_aniso_U_13
_atom_site_aniso_U_12
   Ge1    0.03583    0.03605    0.03607   -0.01773   -0.01756   -0.01754
   Bi1    0.02123    0.02137    0.02139   -0.01046   -0.01037   -0.01035
   Bi2    0.02123    0.02137    0.02139   -0.01046   -0.01037   -0.01035
   Te1    0.01943    0.01953    0.01955   -0.00957   -0.00950   -0.00948
   Te2    0.01943    0.01953    0.01955   -0.00957   -0.00950   -0.00948
   Te3    0.01929    0.01937    0.01938   -0.00948   -0.00944   -0.00943
   Te4    0.01929    0.01937    0.01938   -0.00948   -0.00944   -0.00943
