data_crystal_structure_P1

_symmetry_space_group_name_H-M     'P 1'
_symmetry_Int_Tables_number        1

_cell_length_a                     4.52029
_cell_length_b                     4.52029
_cell_length_c                     4.52029
_cell_angle_alpha                  60.00000
_cell_angle_beta                   60.00000
_cell_angle_gamma                  60.00000
_cell_volume                       65.31043
_cell_formula_units_Z              1

loop_
_space_group_symop_operation_xyz
x,y,z

loop_
_atom_site_label
_atom_site_type_symbol
_atom_site_fract_x
_atom_site_fract_y
_atom_site_fract_z
_atom_site_occupancy
Sn1    Sn    1.00000   1.00000   0.00000   1.00000
Te1    Te    0.50000   0.50000   0.50000   1.00000
loop_
_atom_site_aniso_label
_atom_site_aniso_U_11
_atom_site_aniso_U_22
_atom_site_aniso_U_33
_atom_site_aniso_U_23
_atom_site_aniso_U_13
_atom_site_aniso_U_12
   Sn1   65.23734   65.23734   65.23734  -21.74578  -21.74578  -21.74578
   Te1   65.17160   65.17160   65.17160  -21.72387  -21.72387  -21.72387
