data_crystal_structure_P1

_symmetry_space_group_name_H-M     'P 1'
_symmetry_Int_Tables_number        1

_cell_length_a                     4.67896
_cell_length_b                     4.29735
_cell_length_c                     9.09675
_cell_angle_alpha                  90.00000
_cell_angle_beta                   104.02282
_cell_angle_gamma                  90.00000
_cell_volume                       177.45877
_cell_formula_units_Z              1

loop_
_space_group_symop_operation_xyz
x,y,z

loop_
_atom_site_label
_atom_site_type_symbol
_atom_site_fract_x
_atom_site_fract_y
_atom_site_fract_z
_atom_site_occupancy
Ca1    Ca    0.40152   0.75000   0.28653   1.00000
Ca2    Ca    0.59848   0.25000   0.71347   1.00000
Sb1    Sb    0.78717   0.75000   0.01589   1.00000
Sb2    Sb    0.21283   0.25000   0.98411   1.00000
Sb3    Sb    0.05442   0.75000   0.61755   1.00000
Sb4    Sb    0.94558   0.25000   0.38245   1.00000
loop_
_atom_site_aniso_label
_atom_site_aniso_U_11
_atom_site_aniso_U_22
_atom_site_aniso_U_33
_atom_site_aniso_U_23
_atom_site_aniso_U_13
_atom_site_aniso_U_12
   Ca1    0.09275    0.02632    0.03951   -0.00094    0.01369   -0.01221
   Ca2    0.09275    0.02632    0.03951   -0.00094    0.01369   -0.01221
   Sb1    0.02186    0.01565    0.02706    0.00032    0.00918    0.00087
   Sb2    0.02186    0.01565    0.02706    0.00032    0.00918    0.00087
   Sb3    0.03843    0.14398    0.38532   -0.01274    0.08580   -0.01340
   Sb4    0.03843    0.14398    0.38532   -0.01274    0.08580   -0.01340
