data_crystal_structure_P1

_symmetry_space_group_name_H-M     'P 1'
_symmetry_Int_Tables_number        1

_cell_length_a                     11.63205
_cell_length_b                     3.88949
_cell_length_c                     4.68427
_cell_angle_alpha                  90.00000
_cell_angle_beta                   90.00000
_cell_angle_gamma                  90.00000
_cell_volume                       211.92886
_cell_formula_units_Z              1

loop_
_space_group_symop_operation_xyz
x,y,z

loop_
_atom_site_label
_atom_site_type_symbol
_atom_site_fract_x
_atom_site_fract_y
_atom_site_fract_z
_atom_site_occupancy
Sn1    Sn    0.62363   0.25000   0.36938   1.00000
Sn2    Sn    0.37637   0.75000   0.63062   1.00000
Sn3    Sn    0.87637   0.75000   0.86938   1.00000
Sn4    Sn    0.12363   0.25000   0.13062   1.00000
S1      S    0.34684   0.25000   0.00943   1.00000
S2      S    0.65316   0.75000   0.99057   1.00000
S3      S    0.15316   0.75000   0.50943   1.00000
S4      S    0.84684   0.25000   0.49057   1.00000
loop_
_atom_site_aniso_label
_atom_site_aniso_U_11
_atom_site_aniso_U_22
_atom_site_aniso_U_33
_atom_site_aniso_U_23
_atom_site_aniso_U_13
_atom_site_aniso_U_12
   Sn1    0.00748    0.00588    0.00842    0.00000    0.00112   -0.00000
   Sn2    0.00748    0.00588    0.00842    0.00000    0.00112   -0.00000
   Sn3    0.00748    0.00588    0.00842    0.00000   -0.00112   -0.00000
   Sn4    0.00748    0.00588    0.00842    0.00000   -0.00112   -0.00000
    S1    0.00884    0.00654    0.00872    0.00000    0.00008   -0.00000
    S2    0.00884    0.00654    0.00872    0.00000    0.00008   -0.00000
    S3    0.00884    0.00654    0.00872    0.00000   -0.00008   -0.00000
    S4    0.00884    0.00654    0.00872    0.00000   -0.00008   -0.00000
