data_crystal_structure_P1

_symmetry_space_group_name_H-M     'P 1'
_symmetry_Int_Tables_number        1

_cell_length_a                     14.57520
_cell_length_b                     14.57520
_cell_length_c                     14.57520
_cell_angle_alpha                  16.93713
_cell_angle_beta                   16.93713
_cell_angle_gamma                  16.93713
_cell_volume                       229.23030
_cell_formula_units_Z              1

loop_
_space_group_symop_operation_xyz
x,y,z

loop_
_atom_site_label
_atom_site_type_symbol
_atom_site_fract_x
_atom_site_fract_y
_atom_site_fract_z
_atom_site_occupancy
Ge1    Ge    0.57296   0.57296   0.57296   1.00000
Sb1    Sb    0.42437   0.42437   0.42437   1.00000
Sb2    Sb    0.99753   0.99753   0.99753   1.00000
Te1    Te    0.87346   0.87346   0.87346   1.00000
Te2    Te    0.13082   0.13082   0.13082   1.00000
Te3    Te    0.71035   0.71035   0.71035   1.00000
Te4    Te    0.29049   0.29049   0.29049   1.00000
loop_
_atom_site_aniso_label
_atom_site_aniso_U_11
_atom_site_aniso_U_22
_atom_site_aniso_U_33
_atom_site_aniso_U_23
_atom_site_aniso_U_13
_atom_site_aniso_U_12
   Ge1    0.01740    0.01677    0.01740   -0.00822   -0.00874   -0.00822
   Sb1    0.01434    0.01368    0.01434   -0.00667   -0.00723   -0.00667
   Sb2    0.01328    0.01262    0.01328   -0.00617   -0.00674   -0.00617
   Te1    0.01428    0.01367    0.01428   -0.00668   -0.00717   -0.00668
   Te2    0.01487    0.01424    0.01487   -0.00697   -0.00750   -0.00697
   Te3    0.01159    0.01091    0.01159   -0.00531   -0.00589   -0.00531
   Te4    0.01300    0.01232    0.01300   -0.00604   -0.00662   -0.00604
