data_crystal_structure_P1

_symmetry_space_group_name_H-M     'P 1'
_symmetry_Int_Tables_number        1

_cell_length_a                     10.04774
_cell_length_b                     4.45334
_cell_length_c                     11.70646
_cell_angle_alpha                  90.00000
_cell_angle_beta                   90.00000
_cell_angle_gamma                  90.00000
_cell_volume                       523.81717
_cell_formula_units_Z              1

loop_
_space_group_symop_operation_xyz
x,y,z

loop_
_atom_site_label
_atom_site_type_symbol
_atom_site_fract_x
_atom_site_fract_y
_atom_site_fract_z
_atom_site_occupancy
Ba1    Ba    0.75713   0.25000   0.17787   1.00000
Ba2    Ba    0.24287   0.75000   0.82213   1.00000
Ba3    Ba    0.25713   0.25000   0.32213   1.00000
Ba4    Ba    0.74287   0.75000   0.67787   1.00000
Cu1    Cu    0.07606   0.75000   0.54352   1.00000
Cu2    Cu    0.92394   0.25000   0.45648   1.00000
Cu3    Cu    0.42394   0.25000   0.04352   1.00000
Cu4    Cu    0.57606   0.75000   0.95648   1.00000
Cu5    Cu    0.94567   0.25000   0.88318   1.00000
Cu6    Cu    0.05433   0.75000   0.11682   1.00000
Cu7    Cu    0.44567   0.25000   0.61682   1.00000
Cu8    Cu    0.55433   0.75000   0.38318   1.00000
Te1    Te    0.84200   0.75000   0.96158   1.00000
Te2    Te    0.15800   0.25000   0.03842   1.00000
Te3    Te    0.65800   0.25000   0.46158   1.00000
Te4    Te    0.34200   0.75000   0.53842   1.00000
Te5    Te    0.52377   0.25000   0.83168   1.00000
Te6    Te    0.47623   0.75000   0.16832   1.00000
Te7    Te    0.02377   0.25000   0.66832   1.00000
Te8    Te    0.97623   0.75000   0.33168   1.00000
loop_
_atom_site_aniso_label
_atom_site_aniso_U_11
_atom_site_aniso_U_22
_atom_site_aniso_U_33
_atom_site_aniso_U_23
_atom_site_aniso_U_13
_atom_site_aniso_U_12
   Ba1    0.01331    0.01171    0.00821   -0.00000    0.00252   -0.00000
   Ba2    0.01331    0.01171    0.00821   -0.00000    0.00252   -0.00000
   Ba3    0.01331    0.01171    0.00821    0.00000   -0.00252    0.00000
   Ba4    0.01331    0.01171    0.00821    0.00000   -0.00252    0.00000
   Cu1    0.01294    0.18609    0.01401    0.00000    0.00304    0.00000
   Cu2    0.01294    0.18609    0.01401    0.00000    0.00304    0.00000
   Cu3    0.01294    0.18609    0.01401   -0.00000   -0.00304   -0.00000
   Cu4    0.01294    0.18609    0.01401   -0.00000   -0.00304   -0.00000
   Cu5    0.01433    0.01078    0.02996    0.00000    0.00078   -0.00000
   Cu6    0.01433    0.01078    0.02996    0.00000    0.00078   -0.00000
   Cu7    0.01433    0.01078    0.02996    0.00000   -0.00078    0.00000
   Cu8    0.01433    0.01078    0.02996    0.00000   -0.00078    0.00000
   Te1    0.00819    0.00942    0.00758    0.00000   -0.00128   -0.00000
   Te2    0.00819    0.00942    0.00758    0.00000   -0.00128   -0.00000
   Te3    0.00819    0.00942    0.00758    0.00000    0.00128    0.00000
   Te4    0.00819    0.00942    0.00758    0.00000    0.00128    0.00000
   Te5    0.01002    0.05757    0.01902   -0.00000    0.00478   -0.00000
   Te6    0.01002    0.05757    0.01902   -0.00000    0.00478   -0.00000
   Te7    0.01002    0.05757    0.01902    0.00000   -0.00478   -0.00000
   Te8    0.01002    0.05757    0.01902    0.00000   -0.00478   -0.00000
