data_crystal_structure_P1

_symmetry_space_group_name_H-M     'P 1'
_symmetry_Int_Tables_number        1

_cell_length_a                     6.65533
_cell_length_b                     6.65533
_cell_length_c                     6.65533
_cell_angle_alpha                  90.00000
_cell_angle_beta                   90.00000
_cell_angle_gamma                  90.00000
_cell_volume                       294.78755
_cell_formula_units_Z              1

loop_
_space_group_symop_operation_xyz
x,y,z

loop_
_atom_site_label
_atom_site_type_symbol
_atom_site_fract_x
_atom_site_fract_y
_atom_site_fract_z
_atom_site_occupancy
Cu1    Cu    0.50000   0.50000   1.00000   1.00000
Cu2    Cu    0.50000   0.00000   0.50000   1.00000
Cu3    Cu    0.00000   0.50000   0.50000   1.00000
Cu4    Cu    0.00000   0.00000   1.00000   1.00000
Te1    Te    0.12381   0.87619   0.37619   1.00000
Te2    Te    0.87619   0.37619   0.12381   1.00000
Te3    Te    0.37619   0.12381   0.87619   1.00000
Te4    Te    0.62381   0.62381   0.62381   1.00000
Te5    Te    0.87619   0.12381   0.62381   1.00000
Te6    Te    0.12381   0.62381   0.87619   1.00000
Te7    Te    0.62381   0.87619   0.12381   1.00000
Te8    Te    0.37619   0.37619   0.37619   1.00000
loop_
_atom_site_aniso_label
_atom_site_aniso_U_11
_atom_site_aniso_U_22
_atom_site_aniso_U_33
_atom_site_aniso_U_23
_atom_site_aniso_U_13
_atom_site_aniso_U_12
   Cu1    0.03184    0.03184    0.03184    0.00079   -0.00079   -0.00079
   Cu2    0.03184    0.03184    0.03184   -0.00079   -0.00079    0.00079
   Cu3    0.03184    0.03184    0.03184   -0.00079    0.00079   -0.00079
   Cu4    0.03184    0.03184    0.03184    0.00079    0.00079    0.00079
   Te1    0.02054    0.02054    0.02054   -0.00061    0.00061    0.00061
   Te2    0.02054    0.02054    0.02054    0.00061    0.00061   -0.00061
   Te3    0.02054    0.02054    0.02054    0.00061   -0.00061    0.00061
   Te4    0.02054    0.02054    0.02054   -0.00061   -0.00061   -0.00061
   Te5    0.02054    0.02054    0.02054   -0.00061    0.00061    0.00061
   Te6    0.02054    0.02054    0.02054    0.00061    0.00061   -0.00061
   Te7    0.02054    0.02054    0.02054    0.00061   -0.00061    0.00061
   Te8    0.02054    0.02054    0.02054   -0.00061   -0.00061   -0.00061
