data_crystal_structure_P1

_symmetry_space_group_name_H-M     'P 1'
_symmetry_Int_Tables_number        1

_cell_length_a                     17.07537
_cell_length_b                     9.02369
_cell_length_c                     4.42127
_cell_angle_alpha                  90.00000
_cell_angle_beta                   90.00000
_cell_angle_gamma                  90.00000
_cell_volume                       681.24095
_cell_formula_units_Z              1

loop_
_space_group_symop_operation_xyz
x,y,z

loop_
_atom_site_label
_atom_site_type_symbol
_atom_site_fract_x
_atom_site_fract_y
_atom_site_fract_z
_atom_site_occupancy
Te1    Te    0.61922   0.03493   0.45048   1.00000
Te2    Te    0.38078   0.96507   0.45048   1.00000
Te3    Te    0.11922   0.96507   0.45048   1.00000
Te4    Te    0.88078   0.03493   0.45048   1.00000
Te5    Te    0.62916   0.63959   0.51647   1.00000
Te6    Te    0.37084   0.36041   0.51647   1.00000
Te7    Te    0.12916   0.36041   0.51647   1.00000
Te8    Te    0.87084   0.63959   0.51647   1.00000
Te9    Te    0.75000   0.98076   0.02299   1.00000
Te10   Te    0.25000   0.01924   0.02299   1.00000
Te11   Te    0.75000   0.38012   0.10681   1.00000
Te12   Te    0.25000   0.61988   0.10681   1.00000
Te13   Te    0.00502   0.69885   0.90675   1.00000
Te14   Te    0.99498   0.30115   0.90675   1.00000
Te15   Te    0.50502   0.30115   0.90675   1.00000
Te16   Te    0.49498   0.69885   0.90675   1.00000
Au1    Au    0.62543   0.33632   0.49335   1.00000
Au2    Au    0.37457   0.66368   0.49335   1.00000
Au3    Au    0.12543   0.66368   0.49335   1.00000
Au4    Au    0.87457   0.33632   0.49335   1.00000
Au5    Au    0.25000   0.32145   0.00482   1.00000
Au6    Au    0.75000   0.67855   0.00482   1.00000
Au7    Au    0.50000   1.00000   0.96126   1.00000
Au8    Au    0.00000   1.00000   0.96126   1.00000
loop_
_atom_site_aniso_label
_atom_site_aniso_U_11
_atom_site_aniso_U_22
_atom_site_aniso_U_33
_atom_site_aniso_U_23
_atom_site_aniso_U_13
_atom_site_aniso_U_12
   Te1    0.02492    0.01587    0.03607   -0.00023    0.00127   -0.00055
   Te2    0.02492    0.01587    0.03607    0.00023   -0.00127   -0.00055
   Te3    0.02492    0.01587    0.03607    0.00023    0.00127    0.00055
   Te4    0.02492    0.01587    0.03607   -0.00023   -0.00127    0.00055
   Te5    0.02238    0.01557    0.02778    0.00036    0.00037   -0.00016
   Te6    0.02238    0.01557    0.02778   -0.00036   -0.00037   -0.00016
   Te7    0.02238    0.01557    0.02778   -0.00036    0.00037    0.00016
   Te8    0.02238    0.01557    0.02778    0.00036   -0.00037    0.00016
   Te9    0.01900    0.01433    0.02394   -0.00194   -0.00000   -0.00000
  Te10    0.01900    0.01433    0.02394    0.00194   -0.00000    0.00000
  Te11    0.01851    0.01822    0.02158    0.00168   -0.00000   -0.00000
  Te12    0.01851    0.01822    0.02158   -0.00168   -0.00000    0.00000
  Te13    0.01826    0.01473    0.02207   -0.00100    0.00014    0.00016
  Te14    0.01826    0.01473    0.02207    0.00100   -0.00014    0.00016
  Te15    0.01826    0.01473    0.02207    0.00100    0.00014   -0.00016
  Te16    0.01826    0.01473    0.02207   -0.00100   -0.00014   -0.00016
   Au1    0.01991    0.01417    0.02315   -0.00027    0.00290   -0.00108
   Au2    0.01991    0.01417    0.02315    0.00027   -0.00290   -0.00108
   Au3    0.01991    0.01417    0.02315    0.00027    0.00290    0.00108
   Au4    0.01991    0.01417    0.02315   -0.00027   -0.00290    0.00108
   Au5    0.02435    0.01532    0.02328    0.00041   -0.00000   -0.00000
   Au6    0.02435    0.01532    0.02328   -0.00041   -0.00000   -0.00000
   Au7    0.02171    0.01385    0.02203   -0.00000   -0.00000   -0.00129
   Au8    0.02171    0.01385    0.02203   -0.00000   -0.00000    0.00129
