data_crystal_structure_P1

_symmetry_space_group_name_H-M     'P 1'
_symmetry_Int_Tables_number        1

_cell_length_a                     4.31347
_cell_length_b                     4.31347
_cell_length_c                     25.07851
_cell_angle_alpha                  90.00000
_cell_angle_beta                   90.00000
_cell_angle_gamma                  120.00000
_cell_volume                       404.09786
_cell_formula_units_Z              1

loop_
_space_group_symop_operation_xyz
x,y,z

loop_
_atom_site_label
_atom_site_type_symbol
_atom_site_fract_x
_atom_site_fract_y
_atom_site_fract_z
_atom_site_occupancy
Ge1    Ge    1.00000   0.00000   0.50000   1.00000
Sb1    Sb    0.66667   0.33333   0.92062   1.00000
Sb2    Sb    0.33333   0.66667   0.35213   1.00000
Sb3    Sb    0.33333   0.66667   0.07938   1.00000
Sb4    Sb    0.66667   0.33333   0.64787   1.00000
Te1    Te    0.33333   0.66667   0.85252   1.00000
Te2    Te    0.66667   0.33333   0.14748   1.00000
Te3    Te    1.00000   0.00000   0.71552   1.00000
Te4    Te    0.66667   0.33333   0.43258   1.00000
Te5    Te    0.33333   0.66667   0.56742   1.00000
Te6    Te    1.00000   0.00000   0.00000   1.00000
Te7    Te    1.00000   0.00000   0.28448   1.00000
loop_
_atom_site_aniso_label
_atom_site_aniso_U_11
_atom_site_aniso_U_22
_atom_site_aniso_U_33
_atom_site_aniso_U_23
_atom_site_aniso_U_13
_atom_site_aniso_U_12
   Ge1    0.04527    0.04580    0.04331    0.00028    0.00057    0.02265
   Sb1    0.03265    0.03270    0.04784   -0.00004   -0.00010    0.01637
   Sb2    0.03425    0.03471    0.03901    0.00025    0.00050    0.01716
   Sb3    0.03265    0.03270    0.04784   -0.00004   -0.00010    0.01637
   Sb4    0.03425    0.03471    0.03901    0.00025    0.00050    0.01716
   Te1    0.03494    0.03502    0.04045    0.00001    0.00002    0.01754
   Te2    0.03494    0.03502    0.04045    0.00001    0.00002    0.01754
   Te3    0.03194    0.03225    0.03273    0.00018    0.00035    0.01600
   Te4    0.02644    0.02657    0.02962    0.00018    0.00030    0.01323
   Te5    0.02644    0.02657    0.02962    0.00018    0.00030    0.01323
   Te6    0.02651    0.02659    0.04126   -0.00001   -0.00008    0.01328
   Te7    0.03194    0.03225    0.03273    0.00018    0.00035    0.01600
