data_crystal_structure_P1

_symmetry_space_group_name_H-M     'P 1'
_symmetry_Int_Tables_number        1

_cell_length_a                     4.60764
_cell_length_b                     4.60764
_cell_length_c                     4.60764
_cell_angle_alpha                  60.00000
_cell_angle_beta                   60.00000
_cell_angle_gamma                  60.00000
_cell_volume                       69.17067
_cell_formula_units_Z              1

loop_
_space_group_symop_operation_xyz
x,y,z

loop_
_atom_site_label
_atom_site_type_symbol
_atom_site_fract_x
_atom_site_fract_y
_atom_site_fract_z
_atom_site_occupancy
Li1    Li    0.25000   0.25000   0.25000   1.00000
Cd1    Cd    0.50000   0.50000   0.50000   1.00000
Sb1    Sb    1.00000   0.00000   0.00000   1.00000
loop_
_atom_site_aniso_label
_atom_site_aniso_U_11
_atom_site_aniso_U_22
_atom_site_aniso_U_33
_atom_site_aniso_U_23
_atom_site_aniso_U_13
_atom_site_aniso_U_12
   Li1    0.03250    0.03250    0.03250   -0.01083   -0.01083   -0.01083
   Cd1    0.04066    0.04066    0.04066   -0.01355   -0.01355   -0.01355
   Sb1    0.02941    0.02941    0.02941   -0.00980   -0.00980   -0.00980
