data_crystal_structure_P1

_symmetry_space_group_name_H-M     'P 1'
_symmetry_Int_Tables_number        1

_cell_length_a                     25.89301
_cell_length_b                     4.48799
_cell_length_c                     10.50775
_cell_angle_alpha                  90.00000
_cell_angle_beta                   90.00000
_cell_angle_gamma                  90.00000
_cell_volume                       1221.07857
_cell_formula_units_Z              1

loop_
_space_group_symop_operation_xyz
x,y,z

loop_
_atom_site_label
_atom_site_type_symbol
_atom_site_fract_x
_atom_site_fract_y
_atom_site_fract_z
_atom_site_occupancy
Ba1    Ba    0.53589   0.75000   0.71786   1.00000
Ba2    Ba    0.46411   0.25000   0.28214   1.00000
Ba3    Ba    0.96411   0.25000   0.21786   1.00000
Ba4    Ba    0.03589   0.75000   0.78214   1.00000
Ba5    Ba    0.70749   0.25000   0.95079   1.00000
Ba6    Ba    0.29251   0.75000   0.04921   1.00000
Ba7    Ba    0.79251   0.75000   0.45079   1.00000
Ba8    Ba    0.20749   0.25000   0.54921   1.00000
Ga1    Ga    0.96447   0.25000   0.60127   1.00000
Ga2    Ga    0.03553   0.75000   0.39873   1.00000
Ga3    Ga    0.53553   0.75000   0.10127   1.00000
Ga4    Ga    0.46447   0.25000   0.89873   1.00000
Ga5    Ga    0.78341   0.75000   0.79664   1.00000
Ga6    Ga    0.21659   0.25000   0.20336   1.00000
Ga7    Ga    0.71659   0.25000   0.29664   1.00000
Ga8    Ga    0.28341   0.75000   0.70336   1.00000
Ga9    Ga    0.57963   0.75000   0.32060   1.00000
Ga10   Ga    0.42037   0.25000   0.67940   1.00000
Ga11   Ga    0.81758   0.75000   0.03041   1.00000
Ga12   Ga    0.18242   0.25000   0.96959   1.00000
Ga13   Ga    0.68242   0.25000   0.53041   1.00000
Ga14   Ga    0.31758   0.75000   0.46959   1.00000
Ga15   Ga    0.92037   0.25000   0.82060   1.00000
Ga16   Ga    0.07963   0.75000   0.17940   1.00000
Sb1    Sb    0.07951   0.25000   0.02780   1.00000
Sb2    Sb    0.92049   0.75000   0.97220   1.00000
Sb3    Sb    0.42049   0.75000   0.52780   1.00000
Sb4    Sb    0.57951   0.25000   0.47220   1.00000
Sb5    Sb    0.06981   0.25000   0.52294   1.00000
Sb6    Sb    0.93019   0.75000   0.47706   1.00000
Sb7    Sb    0.43019   0.75000   0.02294   1.00000
Sb8    Sb    0.56981   0.25000   0.97706   1.00000
Sb9    Sb    0.81579   0.25000   0.18415   1.00000
Sb10   Sb    0.18421   0.75000   0.81585   1.00000
Sb11   Sb    0.82835   0.25000   0.69939   1.00000
Sb12   Sb    0.17165   0.75000   0.30061   1.00000
Sb13   Sb    0.67165   0.75000   0.19939   1.00000
Sb14   Sb    0.32835   0.25000   0.80061   1.00000
Sb15   Sb    0.68421   0.75000   0.68415   1.00000
Sb16   Sb    0.31579   0.25000   0.31585   1.00000
loop_
_atom_site_aniso_label
_atom_site_aniso_U_11
_atom_site_aniso_U_22
_atom_site_aniso_U_33
_atom_site_aniso_U_23
_atom_site_aniso_U_13
_atom_site_aniso_U_12
   Ba1    0.03619    0.02741    0.03468   -0.00000   -0.00178   -0.00000
   Ba2    0.03619    0.02741    0.03468   -0.00000   -0.00178   -0.00000
   Ba3    0.03619    0.02741    0.03468    0.00000    0.00178    0.00000
   Ba4    0.03619    0.02741    0.03468    0.00000    0.00178   -0.00000
   Ba5    0.03605    0.02768    0.02661    0.00000    0.00181   -0.00000
   Ba6    0.03605    0.02768    0.02661    0.00000    0.00181   -0.00000
   Ba7    0.03605    0.02768    0.02661    0.00000   -0.00181   -0.00000
   Ba8    0.03605    0.02768    0.02661   -0.00000   -0.00181   -0.00000
   Ga1    0.03490    0.03349    0.02745    0.00000    0.00339    0.00000
   Ga2    0.03490    0.03349    0.02745    0.00000    0.00339   -0.00000
   Ga3    0.03490    0.03349    0.02745   -0.00000   -0.00339   -0.00000
   Ga4    0.03490    0.03349    0.02745   -0.00000   -0.00339   -0.00000
   Ga5    0.02661    0.02596    0.02717    0.00000    0.00168   -0.00000
   Ga6    0.02661    0.02596    0.02717    0.00000    0.00168   -0.00000
   Ga7    0.02661    0.02596    0.02717    0.00000   -0.00168   -0.00000
   Ga8    0.02661    0.02596    0.02717    0.00000   -0.00168   -0.00000
   Ga9    0.02740    0.02732    0.02678    0.00000   -0.00052   -0.00000
  Ga10    0.02740    0.02732    0.02678   -0.00000   -0.00052   -0.00000
  Ga11    0.03389    0.02837    0.02605    0.00000    0.00080   -0.00000
  Ga12    0.03389    0.02837    0.02605    0.00000    0.00080    0.00000
  Ga13    0.03389    0.02837    0.02605    0.00000   -0.00080   -0.00000
  Ga14    0.03389    0.02837    0.02605    0.00000   -0.00080   -0.00000
  Ga15    0.02740    0.02732    0.02678    0.00000    0.00052    0.00000
  Ga16    0.02740    0.02732    0.02678    0.00000    0.00052   -0.00000
   Sb1    0.02964    0.02574    0.02455    0.00000   -0.00109   -0.00000
   Sb2    0.02964    0.02574    0.02455    0.00000   -0.00109   -0.00000
   Sb3    0.02964    0.02574    0.02455   -0.00000    0.00109   -0.00000
   Sb4    0.02964    0.02574    0.02455    0.00000    0.00109   -0.00000
   Sb5    0.02586    0.03195    0.03508    0.00000    0.00145   -0.00000
   Sb6    0.02586    0.03195    0.03508    0.00000    0.00145    0.00000
   Sb7    0.02586    0.03195    0.03508   -0.00000   -0.00145   -0.00000
   Sb8    0.02586    0.03195    0.03508   -0.00000   -0.00145   -0.00000
   Sb9    0.02767    0.02636    0.02710    0.00000    0.00410   -0.00000
  Sb10    0.02767    0.02636    0.02710   -0.00000    0.00410   -0.00000
  Sb11    0.02578    0.02040    0.02695    0.00000   -0.00436   -0.00000
  Sb12    0.02578    0.02040    0.02695    0.00000   -0.00436   -0.00000
  Sb13    0.02578    0.02040    0.02695    0.00000    0.00436   -0.00000
  Sb14    0.02578    0.02040    0.02695    0.00000    0.00436   -0.00000
  Sb15    0.02767    0.02636    0.02710    0.00000   -0.00410   -0.00000
  Sb16    0.02767    0.02636    0.02710    0.00000   -0.00410   -0.00000
