data_crystal_structure_P1

_symmetry_space_group_name_H-M     'P 1'
_symmetry_Int_Tables_number        1

_cell_length_a                     8.03980
_cell_length_b                     4.47340
_cell_length_c                     9.24194
_cell_angle_alpha                  90.00000
_cell_angle_beta                   122.16173
_cell_angle_gamma                  90.00000
_cell_volume                       281.38282
_cell_formula_units_Z              1

loop_
_space_group_symop_operation_xyz
x,y,z

loop_
_atom_site_label
_atom_site_type_symbol
_atom_site_fract_x
_atom_site_fract_y
_atom_site_fract_z
_atom_site_occupancy
Ag1    Ag    0.03112   0.12598   0.65711   1.00000
Ag2    Ag    0.96888   0.62598   0.84289   1.00000
Ag3    Ag    0.96888   0.87402   0.34289   1.00000
Ag4    Ag    0.03112   0.37402   0.15711   1.00000
Ag5    Ag    0.33526   0.85944   0.34369   1.00000
Ag6    Ag    0.66474   0.35944   0.15631   1.00000
Ag7    Ag    0.66474   0.14056   0.65631   1.00000
Ag8    Ag    0.33526   0.64056   0.84369   1.00000
Te1    Te    0.27237   0.14376   0.03051   1.00000
Te2    Te    0.72763   0.64376   0.46949   1.00000
Te3    Te    0.72763   0.85624   0.96949   1.00000
Te4    Te    0.27237   0.35624   0.53051   1.00000
loop_
_atom_site_aniso_label
_atom_site_aniso_U_11
_atom_site_aniso_U_22
_atom_site_aniso_U_33
_atom_site_aniso_U_23
_atom_site_aniso_U_13
_atom_site_aniso_U_12
   Ag1    0.00288    0.00290    0.00259   -0.00007    0.00161   -0.00012
   Ag2    0.00288    0.00290    0.00259    0.00007    0.00161    0.00012
   Ag3    0.00288    0.00290    0.00259   -0.00007    0.00161   -0.00012
   Ag4    0.00288    0.00290    0.00259    0.00007    0.00161    0.00012
   Ag5    0.00253    0.00325    0.00307    0.00023    0.00151    0.00020
   Ag6    0.00253    0.00325    0.00307   -0.00023    0.00151   -0.00020
   Ag7    0.00253    0.00325    0.00307    0.00023    0.00151    0.00020
   Ag8    0.00253    0.00325    0.00307   -0.00023    0.00151   -0.00020
   Te1    0.00210    0.00215    0.00198   -0.00003    0.00107   -0.00006
   Te2    0.00210    0.00215    0.00198    0.00003    0.00107    0.00006
   Te3    0.00210    0.00215    0.00198   -0.00003    0.00107   -0.00006
   Te4    0.00210    0.00215    0.00198    0.00003    0.00107    0.00006
