data_crystal_structure_P1

_symmetry_space_group_name_H-M     'P 1'
_symmetry_Int_Tables_number        1

_cell_length_a                     3.96593
_cell_length_b                     3.96593
_cell_length_c                     3.96593
_cell_angle_alpha                  97.33636
_cell_angle_beta                   97.33653
_cell_angle_gamma                  138.12551
_cell_volume                       38.88856
_cell_formula_units_Z              1

loop_
_space_group_symop_operation_xyz
x,y,z

loop_
_atom_site_label
_atom_site_type_symbol
_atom_site_fract_x
_atom_site_fract_y
_atom_site_fract_z
_atom_site_occupancy
Ga1    Ga    0.84776   0.34776   0.50000   1.00000
As1    As    0.09776   0.09776   0.00000   1.00000
loop_
_atom_site_aniso_label
_atom_site_aniso_U_11
_atom_site_aniso_U_22
_atom_site_aniso_U_33
_atom_site_aniso_U_23
_atom_site_aniso_U_13
_atom_site_aniso_U_12
   Ga1    0.04622    0.04622    0.03134    0.01055    0.01055    0.03912
   As1    0.02497    0.02497    0.02873    0.00967    0.00967    0.01846
