data_crystal_structure_P1

_symmetry_space_group_name_H-M     'P 1'
_symmetry_Int_Tables_number        1

_cell_length_a                     5.83879
_cell_length_b                     5.31480
_cell_length_c                     10.84065
_cell_angle_alpha                  90.00000
_cell_angle_beta                   118.72420
_cell_angle_gamma                  90.00000
_cell_volume                       295.00984
_cell_formula_units_Z              1

loop_
_space_group_symop_operation_xyz
x,y,z

loop_
_atom_site_label
_atom_site_type_symbol
_atom_site_fract_x
_atom_site_fract_y
_atom_site_fract_z
_atom_site_occupancy
Li1    Li    0.77257   0.17194   0.44975   1.00000
Li2    Li    0.22743   0.67194   0.05025   1.00000
Li3    Li    0.22743   0.82806   0.55025   1.00000
Li4    Li    0.77257   0.32806   0.94975   1.00000
Li5    Li    0.76223   0.92256   0.17225   1.00000
Li6    Li    0.23777   0.42256   0.32775   1.00000
Li7    Li    0.23777   0.07744   0.82775   1.00000
Li8    Li    0.76223   0.57744   0.67225   1.00000
As1    As    0.71015   0.67240   0.40370   1.00000
As2    As    0.28985   0.17240   0.09630   1.00000
As3    As    0.28985   0.32760   0.59630   1.00000
As4    As    0.71015   0.82760   0.90370   1.00000
As5    As    0.70028   0.43257   0.20266   1.00000
As6    As    0.29972   0.93257   0.29734   1.00000
As7    As    0.29972   0.56743   0.79734   1.00000
As8    As    0.70028   0.06743   0.70266   1.00000
loop_
_atom_site_aniso_label
_atom_site_aniso_U_11
_atom_site_aniso_U_22
_atom_site_aniso_U_33
_atom_site_aniso_U_23
_atom_site_aniso_U_13
_atom_site_aniso_U_12
   Li1    0.04098    0.02426    0.05464   -0.00147    0.00858   -0.00114
   Li2    0.04097    0.02426    0.05464    0.00146    0.00858    0.00114
   Li3    0.04098    0.02426    0.05464   -0.00147    0.00858   -0.00114
   Li4    0.04097    0.02426    0.05464    0.00146    0.00858    0.00114
   Li5    0.04631    0.03095    0.07145   -0.00006    0.02858   -0.00026
   Li6    0.04631    0.03095    0.07144    0.00005    0.02858    0.00027
   Li7    0.04631    0.03095    0.07145   -0.00006    0.02858   -0.00026
   Li8    0.04631    0.03095    0.07144    0.00005    0.02858    0.00027
   As1    0.03026    0.02044    0.03031    0.00132    0.00649   -0.00406
   As2    0.03026    0.02044    0.03031   -0.00133    0.00649    0.00406
   As3    0.03026    0.02044    0.03031    0.00132    0.00649   -0.00406
   As4    0.03026    0.02044    0.03031   -0.00133    0.00649    0.00406
   As5    0.02914    0.02790    0.04431    0.00234    0.02025    0.00152
   As6    0.02915    0.02789    0.04431   -0.00236    0.02025   -0.00152
   As7    0.02914    0.02790    0.04431    0.00234    0.02025    0.00152
   As8    0.02915    0.02789    0.04431   -0.00236    0.02025   -0.00152
