data_crystal_structure_P1

_symmetry_space_group_name_H-M     'P 1'
_symmetry_Int_Tables_number        1

_cell_length_a                     4.65782
_cell_length_b                     4.65782
_cell_length_c                     7.15198
_cell_angle_alpha                  90.00000
_cell_angle_beta                   90.00000
_cell_angle_gamma                  120.00000
_cell_volume                       134.37647
_cell_formula_units_Z              1

loop_
_space_group_symop_operation_xyz
x,y,z

loop_
_atom_site_label
_atom_site_type_symbol
_atom_site_fract_x
_atom_site_fract_y
_atom_site_fract_z
_atom_site_occupancy
Mg1    Mg    0.00000   1.00000   0.00000   1.00000
Mg2    Mg    0.33333   0.66667   0.36229   1.00000
Mg3    Mg    0.66667   0.33333   0.63771   1.00000
Sb1    Sb    0.33333   0.66667   0.77530   1.00000
Sb2    Sb    0.66667   0.33333   0.22470   1.00000
loop_
_atom_site_aniso_label
_atom_site_aniso_U_11
_atom_site_aniso_U_22
_atom_site_aniso_U_33
_atom_site_aniso_U_23
_atom_site_aniso_U_13
_atom_site_aniso_U_12
   Mg1    0.01403    0.01404    0.01787   -0.00000   -0.00000    0.00706
   Mg2    0.00743    0.00743    0.00806   -0.00000   -0.00000    0.00376
   Mg3    0.00743    0.00743    0.00806   -0.00000   -0.00000    0.00376
   Sb1    0.00592    0.00592    0.00604   -0.00000   -0.00000    0.00301
   Sb2    0.00592    0.00592    0.00604   -0.00000   -0.00000    0.00301
