data_crystal_structure_P1

_symmetry_space_group_name_H-M     'P 1'
_symmetry_Int_Tables_number        1

_cell_length_a                     5.39808
_cell_length_b                     5.39808
_cell_length_c                     5.39808
_cell_angle_alpha                  60.00000
_cell_angle_beta                   60.00000
_cell_angle_gamma                  60.00000
_cell_volume                       111.22526
_cell_formula_units_Z              1

loop_
_space_group_symop_operation_xyz
x,y,z

loop_
_atom_site_label
_atom_site_type_symbol
_atom_site_fract_x
_atom_site_fract_y
_atom_site_fract_z
_atom_site_occupancy
Na1    Na    0.25000   0.25000   0.25000   1.00000
Na2    Na    0.75000   0.75000   0.75000   1.00000
Tl1    Tl    1.00000   0.00000   1.00000   1.00000
Sb1    Sb    0.50000   0.50000   0.50000   1.00000
loop_
_atom_site_aniso_label
_atom_site_aniso_U_11
_atom_site_aniso_U_22
_atom_site_aniso_U_33
_atom_site_aniso_U_23
_atom_site_aniso_U_13
_atom_site_aniso_U_12
   Na1    0.00692    0.00692    0.00692   -0.00232   -0.00232   -0.00232
   Na2    0.00692    0.00692    0.00692   -0.00232   -0.00232   -0.00232
   Tl1    0.00209    0.00209    0.00209   -0.00073   -0.00073   -0.00073
   Sb1    0.00294    0.00294    0.00294   -0.00099   -0.00099   -0.00099
