data_crystal_structure_P1

_symmetry_space_group_name_H-M     'P 1'
_symmetry_Int_Tables_number        1

_cell_length_a                     10.68633
_cell_length_b                     4.53163
_cell_length_c                     11.81002
_cell_angle_alpha                  90.00000
_cell_angle_beta                   90.00000
_cell_angle_gamma                  90.00000
_cell_volume                       571.91756
_cell_formula_units_Z              1

loop_
_space_group_symop_operation_xyz
x,y,z

loop_
_atom_site_label
_atom_site_type_symbol
_atom_site_fract_x
_atom_site_fract_y
_atom_site_fract_z
_atom_site_occupancy
Ba1    Ba    0.24762   0.75000   0.81978   1.00000
Ba2    Ba    0.75238   0.25000   0.18022   1.00000
Ba3    Ba    0.74762   0.75000   0.68022   1.00000
Ba4    Ba    0.25238   0.25000   0.31978   1.00000
Zn1    Zn    0.90337   0.25000   0.45269   1.00000
Zn2    Zn    0.09663   0.75000   0.54731   1.00000
Zn3    Zn    0.59663   0.75000   0.95269   1.00000
Zn4    Zn    0.40337   0.25000   0.04731   1.00000
Zn5    Zn    0.44656   0.25000   0.62040   1.00000
Zn6    Zn    0.55344   0.75000   0.37960   1.00000
Zn7    Zn    0.94656   0.25000   0.87960   1.00000
Zn8    Zn    0.05344   0.75000   0.12040   1.00000
Sb1    Sb    0.15036   0.25000   0.03471   1.00000
Sb2    Sb    0.84964   0.75000   0.96529   1.00000
Sb3    Sb    0.34964   0.75000   0.53471   1.00000
Sb4    Sb    0.65036   0.25000   0.46529   1.00000
Sb5    Sb    0.02577   0.25000   0.66265   1.00000
Sb6    Sb    0.97423   0.75000   0.33735   1.00000
Sb7    Sb    0.52577   0.25000   0.83735   1.00000
Sb8    Sb    0.47423   0.75000   0.16265   1.00000
loop_
_atom_site_aniso_label
_atom_site_aniso_U_11
_atom_site_aniso_U_22
_atom_site_aniso_U_33
_atom_site_aniso_U_23
_atom_site_aniso_U_13
_atom_site_aniso_U_12
   Ba1    0.00277    0.00244    0.00238    0.00000    0.00019    0.00000
   Ba2    0.00277    0.00244    0.00238    0.00000    0.00019    0.00000
   Ba3    0.00277    0.00244    0.00238   -0.00000   -0.00019    0.00000
   Ba4    0.00277    0.00244    0.00238   -0.00000   -0.00019    0.00000
   Zn1    0.00333    0.00357    0.00365    0.00000   -0.00012    0.00000
   Zn2    0.00333    0.00357    0.00365    0.00000   -0.00012    0.00000
   Zn3    0.00333    0.00357    0.00365   -0.00000    0.00012    0.00000
   Zn4    0.00333    0.00357    0.00365   -0.00000    0.00012    0.00000
   Zn5    0.00410    0.00310    0.00326    0.00000   -0.00028   -0.00000
   Zn6    0.00410    0.00310    0.00326    0.00000   -0.00028    0.00000
   Zn7    0.00410    0.00310    0.00326   -0.00000    0.00028    0.00000
   Zn8    0.00410    0.00310    0.00326   -0.00000    0.00028    0.00000
   Sb1    0.00216    0.00226    0.00224   -0.00000   -0.00001    0.00000
   Sb2    0.00216    0.00226    0.00224    0.00000   -0.00001    0.00000
   Sb3    0.00216    0.00226    0.00224   -0.00000    0.00001    0.00000
   Sb4    0.00216    0.00226    0.00224   -0.00000    0.00001    0.00000
   Sb5    0.00262    0.00229    0.00203    0.00000    0.00010    0.00000
   Sb6    0.00262    0.00229    0.00203    0.00000    0.00010    0.00000
   Sb7    0.00262    0.00229    0.00203   -0.00000   -0.00010    0.00000
   Sb8    0.00262    0.00229    0.00203   -0.00000   -0.00010    0.00000
