data_crystal_structure_P1

_symmetry_space_group_name_H-M     'P 1'
_symmetry_Int_Tables_number        1

_cell_length_a                     6.77064
_cell_length_b                     12.92296
_cell_length_c                     15.59761
_cell_angle_alpha                  90.00000
_cell_angle_beta                   90.03625
_cell_angle_gamma                  90.00000
_cell_volume                       1364.73953
_cell_formula_units_Z              1

loop_
_space_group_symop_operation_xyz
x,y,z

loop_
_atom_site_label
_atom_site_type_symbol
_atom_site_fract_x
_atom_site_fract_y
_atom_site_fract_z
_atom_site_occupancy
Sr1    Sr    0.24876   0.12155   0.99706   1.00000
Sr2    Sr    0.75124   0.62155   0.50294   1.00000
Sr3    Sr    0.75124   0.87845   0.00294   1.00000
Sr4    Sr    0.24876   0.37845   0.49706   1.00000
Sr5    Sr    0.74976   0.12753   0.49647   1.00000
Sr6    Sr    0.25024   0.62753   0.00353   1.00000
Sr7    Sr    0.25024   0.87247   0.50353   1.00000
Sr8    Sr    0.74976   0.37247   0.99647   1.00000
Sr9    Sr    0.99366   0.27804   0.24159   1.00000
Sr10   Sr    0.00634   0.77804   0.25841   1.00000
Sr11   Sr    0.00634   0.72196   0.75841   1.00000
Sr12   Sr    0.99366   0.22196   0.74159   1.00000
Sr13   Sr    0.49254   0.47104   0.25101   1.00000
Sr14   Sr    0.50746   0.97104   0.24899   1.00000
Sr15   Sr    0.50746   0.52896   0.74899   1.00000
Sr16   Sr    0.49254   0.02896   0.75101   1.00000
Sb1    Sb    0.26196   0.36796   0.07146   1.00000
Sb2    Sb    0.73804   0.86796   0.42854   1.00000
Sb3    Sb    0.73804   0.63204   0.92854   1.00000
Sb4    Sb    0.26196   0.13204   0.57146   1.00000
Sb5    Sb    0.53147   0.22029   0.15979   1.00000
Sb6    Sb    0.46853   0.72029   0.34021   1.00000
Sb7    Sb    0.46853   0.77971   0.84021   1.00000
Sb8    Sb    0.53147   0.27971   0.65979   1.00000
Sb9    Sb    0.41999   0.20700   0.34227   1.00000
Sb10   Sb    0.58001   0.70700   0.15773   1.00000
Sb11   Sb    0.58001   0.79300   0.65773   1.00000
Sb12   Sb    0.41999   0.29300   0.84227   1.00000
Sb13   Sb    0.08589   0.04647   0.34864   1.00000
Sb14   Sb    0.91411   0.54647   0.15136   1.00000
Sb15   Sb    0.91411   0.95353   0.65136   1.00000
Sb16   Sb    0.08589   0.45353   0.84864   1.00000
Sb17   Sb    0.96919   0.02832   0.16723   1.00000
Sb18   Sb    0.03081   0.52832   0.33277   1.00000
Sb19   Sb    0.03081   0.97168   0.83277   1.00000
Sb20   Sb    0.96919   0.47168   0.66723   1.00000
Sb21   Sb    0.76209   0.38080   0.41856   1.00000
Sb22   Sb    0.23791   0.88080   0.08144   1.00000
Sb23   Sb    0.23791   0.61920   0.58144   1.00000
Sb24   Sb    0.76209   0.11920   0.91856   1.00000
loop_
_atom_site_aniso_label
_atom_site_aniso_U_11
_atom_site_aniso_U_22
_atom_site_aniso_U_33
_atom_site_aniso_U_23
_atom_site_aniso_U_13
_atom_site_aniso_U_12
   Sr1    0.01528    0.01251    0.01571   -0.00026   -0.00117   -0.00241
   Sr2    0.01528    0.01251    0.01571    0.00026   -0.00117    0.00241
   Sr3    0.01528    0.01251    0.01571   -0.00026   -0.00117   -0.00241
   Sr4    0.01528    0.01251    0.01571    0.00026   -0.00117    0.00241
   Sr5    0.01334    0.01705    0.01550    0.00013    0.00047    0.00312
   Sr6    0.01334    0.01705    0.01550   -0.00013    0.00047   -0.00312
   Sr7    0.01334    0.01705    0.01550    0.00013    0.00047    0.00312
   Sr8    0.01334    0.01705    0.01550   -0.00013    0.00047   -0.00312
   Sr9    0.01234    0.01297    0.02071   -0.00028   -0.00246    0.00193
  Sr10    0.01234    0.01297    0.02071    0.00028   -0.00246   -0.00193
  Sr11    0.01234    0.01297    0.02071   -0.00028   -0.00246    0.00193
  Sr12    0.01234    0.01297    0.02071    0.00028   -0.00246   -0.00193
  Sr13    0.01166    0.01168    0.02003    0.00115    0.00066   -0.00173
  Sr14    0.01166    0.01168    0.02003   -0.00115    0.00066    0.00173
  Sr15    0.01166    0.01168    0.02003    0.00115    0.00066   -0.00173
  Sr16    0.01166    0.01168    0.02003   -0.00115    0.00066    0.00173
   Sb1    0.01208    0.01257    0.03152   -0.00130   -0.00081   -0.00217
   Sb2    0.01208    0.01257    0.03152    0.00130   -0.00081    0.00217
   Sb3    0.01208    0.01257    0.03152   -0.00130   -0.00081   -0.00217
   Sb4    0.01208    0.01257    0.03152    0.00130   -0.00081    0.00217
   Sb5    0.02554    0.01826    0.02827    0.00953   -0.01435   -0.01288
   Sb6    0.02554    0.01826    0.02827   -0.00953   -0.01435    0.01288
   Sb7    0.02554    0.01826    0.02827    0.00953   -0.01435   -0.01288
   Sb8    0.02554    0.01826    0.02827   -0.00953   -0.01435    0.01288
   Sb9    0.02103    0.01454    0.02987   -0.00770   -0.01311    0.00797
  Sb10    0.02103    0.01454    0.02987    0.00770   -0.01311   -0.00797
  Sb11    0.02103    0.01454    0.02987   -0.00770   -0.01311    0.00797
  Sb12    0.02103    0.01454    0.02987    0.00770   -0.01311   -0.00797
  Sb13    0.02106    0.01781    0.02406    0.00645    0.01015    0.00866
  Sb14    0.02106    0.01781    0.02406   -0.00645    0.01015   -0.00866
  Sb15    0.02106    0.01781    0.02406    0.00645    0.01015    0.00866
  Sb16    0.02106    0.01781    0.02406   -0.00645    0.01015   -0.00866
  Sb17    0.02414    0.01839    0.02566   -0.00793    0.00974   -0.01234
  Sb18    0.02414    0.01839    0.02566    0.00793    0.00974    0.01234
  Sb19    0.02414    0.01839    0.02566   -0.00793    0.00974   -0.01234
  Sb20    0.02414    0.01839    0.02566    0.00793    0.00974    0.01234
  Sb21    0.01251    0.01256    0.03110   -0.00193   -0.00256    0.00222
  Sb22    0.01251    0.01256    0.03110    0.00193   -0.00256   -0.00222
  Sb23    0.01251    0.01256    0.03110   -0.00193   -0.00256    0.00222
  Sb24    0.01251    0.01256    0.03110    0.00193   -0.00256   -0.00222
