data_crystal_structure_P1

_symmetry_space_group_name_H-M     'P 1'
_symmetry_Int_Tables_number        1

_cell_length_a                     8.58767
_cell_length_b                     5.74444
_cell_length_c                     10.94914
_cell_angle_alpha                  90.00000
_cell_angle_beta                   90.00000
_cell_angle_gamma                  90.00000
_cell_volume                       540.13548
_cell_formula_units_Z              1

loop_
_space_group_symop_operation_xyz
x,y,z

loop_
_atom_site_label
_atom_site_type_symbol
_atom_site_fract_x
_atom_site_fract_y
_atom_site_fract_z
_atom_site_occupancy
Ba1    Ba    0.01961   0.75000   0.31968   1.00000
Ba2    Ba    0.98039   0.25000   0.68032   1.00000
Ba3    Ba    0.51961   0.75000   0.18032   1.00000
Ba4    Ba    0.48039   0.25000   0.81968   1.00000
Ba5    Ba    0.34344   0.25000   0.42146   1.00000
Ba6    Ba    0.65656   0.75000   0.57854   1.00000
Ba7    Ba    0.84344   0.25000   0.07854   1.00000
Ba8    Ba    0.15656   0.75000   0.92146   1.00000
Pb1    Pb    0.24117   0.75000   0.60431   1.00000
Pb2    Pb    0.75883   0.25000   0.39569   1.00000
Pb3    Pb    0.74117   0.75000   0.89569   1.00000
Pb4    Pb    0.25883   0.25000   0.10431   1.00000
loop_
_atom_site_aniso_label
_atom_site_aniso_U_11
_atom_site_aniso_U_22
_atom_site_aniso_U_33
_atom_site_aniso_U_23
_atom_site_aniso_U_13
_atom_site_aniso_U_12
   Ba1    0.03113    0.03773    0.03083   -0.00000   -0.00523   -0.00000
   Ba2    0.03113    0.03773    0.03083   -0.00000   -0.00523   -0.00000
   Ba3    0.03113    0.03773    0.03083   -0.00000    0.00523   -0.00000
   Ba4    0.03113    0.03773    0.03083   -0.00000    0.00523   -0.00000
   Ba5    0.03794    0.02415    0.02749   -0.00000    0.00117   -0.00000
   Ba6    0.03794    0.02415    0.02749   -0.00000    0.00117   -0.00000
   Ba7    0.03794    0.02415    0.02749   -0.00000   -0.00117   -0.00000
   Ba8    0.03794    0.02415    0.02749   -0.00000   -0.00117   -0.00000
   Pb1    0.03278    0.02882    0.02619   -0.00000    0.00297   -0.00000
   Pb2    0.03278    0.02882    0.02619   -0.00000    0.00297   -0.00000
   Pb3    0.03278    0.02882    0.02619   -0.00000   -0.00297   -0.00000
   Pb4    0.03278    0.02882    0.02619   -0.00000   -0.00297   -0.00000
