data_crystal_structure_P1

_symmetry_space_group_name_H-M     'P 1'
_symmetry_Int_Tables_number        1

_cell_length_a                     12.11755
_cell_length_b                     3.87327
_cell_length_c                     11.13815
_cell_angle_alpha                  90.00000
_cell_angle_beta                   90.00000
_cell_angle_gamma                  90.00000
_cell_volume                       522.76410
_cell_formula_units_Z              1

loop_
_space_group_symop_operation_xyz
x,y,z

loop_
_atom_site_label
_atom_site_type_symbol
_atom_site_fract_x
_atom_site_fract_y
_atom_site_fract_z
_atom_site_occupancy
Sb1    Sb    0.85895   0.75000   0.46614   1.00000
Sb2    Sb    0.14105   0.25000   0.53386   1.00000
Sb3    Sb    0.64105   0.25000   0.96614   1.00000
Sb4    Sb    0.35895   0.75000   0.03386   1.00000
Sb5    Sb    0.96736   0.25000   0.17042   1.00000
Sb6    Sb    0.03264   0.75000   0.82958   1.00000
Sb7    Sb    0.53264   0.75000   0.67042   1.00000
Sb8    Sb    0.46736   0.25000   0.32958   1.00000
S1      S    0.87587   0.75000   0.05578   1.00000
S2      S    0.12413   0.25000   0.94422   1.00000
S3      S    0.62413   0.25000   0.55578   1.00000
S4      S    0.37587   0.75000   0.44422   1.00000
S5      S    0.04555   0.75000   0.37407   1.00000
S6      S    0.95445   0.25000   0.62593   1.00000
S7      S    0.45445   0.25000   0.87407   1.00000
S8      S    0.54555   0.75000   0.12593   1.00000
S9      S    0.30086   0.25000   0.18892   1.00000
S10     S    0.69914   0.75000   0.81108   1.00000
S11     S    0.19914   0.75000   0.68892   1.00000
S12     S    0.80086   0.25000   0.31108   1.00000
loop_
_atom_site_aniso_label
_atom_site_aniso_U_11
_atom_site_aniso_U_22
_atom_site_aniso_U_33
_atom_site_aniso_U_23
_atom_site_aniso_U_13
_atom_site_aniso_U_12
   Sb1    0.00952    0.00893    0.00983   -0.00000    0.00155   -0.00000
   Sb2    0.00952    0.00893    0.00983   -0.00000    0.00155   -0.00000
   Sb3    0.00952    0.00893    0.00983   -0.00000   -0.00155   -0.00000
   Sb4    0.00952    0.00893    0.00983   -0.00000   -0.00155   -0.00000
   Sb5    0.01047    0.00643    0.00855   -0.00000   -0.00094   -0.00000
   Sb6    0.01047    0.00643    0.00855   -0.00000   -0.00094   -0.00000
   Sb7    0.01047    0.00643    0.00855   -0.00000    0.00094   -0.00000
   Sb8    0.01047    0.00643    0.00855   -0.00000    0.00094   -0.00000
    S1    0.01050    0.00796    0.00795   -0.00000   -0.00076   -0.00000
    S2    0.01050    0.00796    0.00795   -0.00000   -0.00076   -0.00000
    S3    0.01050    0.00796    0.00795   -0.00000    0.00076   -0.00000
    S4    0.01050    0.00796    0.00795   -0.00000    0.00076   -0.00000
    S5    0.00996    0.00738    0.00919   -0.00000    0.00139   -0.00000
    S6    0.00996    0.00738    0.00919   -0.00000    0.00139   -0.00000
    S7    0.00996    0.00738    0.00919   -0.00000   -0.00139   -0.00000
    S8    0.00996    0.00738    0.00919   -0.00000   -0.00139   -0.00000
    S9    0.01018    0.00852    0.00796   -0.00000   -0.00024   -0.00000
   S10    0.01018    0.00852    0.00796   -0.00000   -0.00024   -0.00000
   S11    0.01018    0.00852    0.00796   -0.00000    0.00024   -0.00000
   S12    0.01018    0.00852    0.00796   -0.00000    0.00024   -0.00000
