data_crystal_structure_P1

_symmetry_space_group_name_H-M     'P 1'
_symmetry_Int_Tables_number        1

_cell_length_a                     7.07877
_cell_length_b                     7.07877
_cell_length_c                     7.07877
_cell_angle_alpha                  34.52892
_cell_angle_beta                   34.52892
_cell_angle_gamma                  34.52892
_cell_volume                       101.67461
_cell_formula_units_Z              1

loop_
_space_group_symop_operation_xyz
x,y,z

loop_
_atom_site_label
_atom_site_type_symbol
_atom_site_fract_x
_atom_site_fract_y
_atom_site_fract_z
_atom_site_occupancy
Ag1    Ag    0.00000   1.00000   0.00000   1.00000
Bi1    Bi    0.50000   0.50000   0.50000   1.00000
Se1    Se    0.25413   0.25413   0.25413   1.00000
Se2    Se    0.74587   0.74587   0.74587   1.00000
loop_
_atom_site_aniso_label
_atom_site_aniso_U_11
_atom_site_aniso_U_22
_atom_site_aniso_U_33
_atom_site_aniso_U_23
_atom_site_aniso_U_13
_atom_site_aniso_U_12
   Ag1    0.02953    0.02953    0.02953   -0.01335   -0.01335   -0.01335
   Bi1    0.02122    0.02122    0.02123   -0.00942   -0.00941   -0.00941
   Se1    0.02983    0.02983    0.02983   -0.01379   -0.01379   -0.01379
   Se2    0.02983    0.02983    0.02983   -0.01379   -0.01379   -0.01379
