data_crystal_structure_P1

_symmetry_space_group_name_H-M     'P 1'
_symmetry_Int_Tables_number        1

_cell_length_a                     4.86809
_cell_length_b                     4.86809
_cell_length_c                     9.53479
_cell_angle_alpha                  90.00000
_cell_angle_beta                   90.00000
_cell_angle_gamma                  120.00000
_cell_volume                       195.68598
_cell_formula_units_Z              1

loop_
_space_group_symop_operation_xyz
x,y,z

loop_
_atom_site_label
_atom_site_type_symbol
_atom_site_fract_x
_atom_site_fract_y
_atom_site_fract_z
_atom_site_occupancy
Ba1    Ba    0.00000   0.00000   1.00000   1.00000
Ba2    Ba    0.00000   0.00000   0.50000   1.00000
Ag1    Ag    0.33333   0.66667   0.75000   1.00000
Ag2    Ag    0.66667   0.33333   0.25000   1.00000
Sb1    Sb    0.33333   0.66667   0.25000   1.00000
Sb2    Sb    0.66667   0.33333   0.75000   1.00000
loop_
_atom_site_aniso_label
_atom_site_aniso_U_11
_atom_site_aniso_U_22
_atom_site_aniso_U_33
_atom_site_aniso_U_23
_atom_site_aniso_U_13
_atom_site_aniso_U_12
   Ba1    0.02148    0.02148    0.01737    0.00000    0.00000    0.01074
   Ba2    0.02148    0.02148    0.01737   -0.00000   -0.00000    0.01074
   Ag1    0.01731    0.01731    0.02705   -0.00000   -0.00000    0.00866
   Ag2    0.01731    0.01731    0.02705   -0.00000   -0.00000    0.00866
   Sb1    0.01451    0.01451    0.02631   -0.00000   -0.00000    0.00726
   Sb2    0.01451    0.01451    0.02631   -0.00000   -0.00000    0.00726
