data_crystal_structure_P1

_symmetry_space_group_name_H-M     'P 1'
_symmetry_Int_Tables_number        1

_cell_length_a                     9.52077
_cell_length_b                     3.80188
_cell_length_c                     18.26674
_cell_angle_alpha                  90.00000
_cell_angle_beta                   90.00000
_cell_angle_gamma                  90.00000
_cell_volume                       661.19754
_cell_formula_units_Z              1

loop_
_space_group_symop_operation_xyz
x,y,z

loop_
_atom_site_label
_atom_site_type_symbol
_atom_site_fract_x
_atom_site_fract_y
_atom_site_fract_z
_atom_site_occupancy
As1    As    0.33976   0.75000   0.48998   1.00000
As2    As    0.83976   0.75000   0.01002   1.00000
As3    As    0.66024   0.25000   0.51002   1.00000
As4    As    0.16024   0.25000   0.98998   1.00000
As5    As    0.00335   0.25000   0.38747   1.00000
As6    As    0.50335   0.25000   0.11253   1.00000
As7    As    0.99665   0.75000   0.61253   1.00000
As8    As    0.49665   0.75000   0.88747   1.00000
Pb1    Pb    0.66386   0.75000   0.31418   1.00000
Pb2    Pb    0.16386   0.75000   0.18582   1.00000
Pb3    Pb    0.33614   0.25000   0.68582   1.00000
Pb4    Pb    0.83614   0.25000   0.81418   1.00000
S1      S    0.80213   0.75000   0.45679   1.00000
S2      S    0.30213   0.75000   0.04321   1.00000
S3      S    0.19787   0.25000   0.54321   1.00000
S4      S    0.69787   0.25000   0.95679   1.00000
S5      S    0.49374   0.25000   0.41757   1.00000
S6      S    0.99374   0.25000   0.08243   1.00000
S7      S    0.50626   0.75000   0.58243   1.00000
S8      S    0.00626   0.75000   0.91757   1.00000
S9      S    0.15292   0.75000   0.35762   1.00000
S10     S    0.65292   0.75000   0.14238   1.00000
S11     S    0.84708   0.25000   0.64238   1.00000
S12     S    0.34708   0.25000   0.85762   1.00000
S13     S    0.62041   0.75000   0.78066   1.00000
S14     S    0.12041   0.75000   0.71934   1.00000
S15     S    0.37959   0.25000   0.21934   1.00000
S16     S    0.87959   0.25000   0.28066   1.00000
loop_
_atom_site_aniso_label
_atom_site_aniso_U_11
_atom_site_aniso_U_22
_atom_site_aniso_U_33
_atom_site_aniso_U_23
_atom_site_aniso_U_13
_atom_site_aniso_U_12
   As1    0.03249    0.03394    0.05833   -0.00000   -0.00580    0.00000
   As2    0.03249    0.03394    0.05833    0.00000    0.00580    0.00000
   As3    0.03249    0.03394    0.05833   -0.00000   -0.00580    0.00000
   As4    0.03249    0.03394    0.05833    0.00000    0.00580    0.00000
   As5    0.05260    0.04277    0.04068    0.00000    0.00363    0.00000
   As6    0.05260    0.04277    0.04068   -0.00000   -0.00363    0.00000
   As7    0.05260    0.04277    0.04068    0.00000    0.00363    0.00000
   As8    0.05260    0.04277    0.04068   -0.00000   -0.00363    0.00000
   Pb1    0.05265    0.03199    0.05380   -0.00000   -0.00327    0.00000
   Pb2    0.05265    0.03199    0.05380    0.00000    0.00327    0.00000
   Pb3    0.05265    0.03199    0.05380   -0.00000   -0.00327    0.00000
   Pb4    0.05265    0.03199    0.05380    0.00000    0.00327    0.00000
    S1    0.04989    0.12358    0.04636   -0.00000   -0.01174    0.00000
    S2    0.04989    0.12358    0.04636    0.00000    0.01174    0.00000
    S3    0.04989    0.12358    0.04636   -0.00000   -0.01174    0.00000
    S4    0.04989    0.12358    0.04636    0.00000    0.01174    0.00000
    S5    0.06726    0.04902    0.08630   -0.00000   -0.04839    0.00000
    S6    0.06726    0.04902    0.08630    0.00000    0.04839    0.00000
    S7    0.06726    0.04902    0.08630   -0.00000   -0.04839    0.00000
    S8    0.06726    0.04902    0.08630    0.00000    0.04839    0.00000
    S9    0.03401    0.06772    0.04070    0.00000    0.00157    0.00000
   S10    0.03401    0.06772    0.04070   -0.00000   -0.00157    0.00000
   S11    0.03401    0.06772    0.04070    0.00000    0.00157    0.00000
   S12    0.03401    0.06772    0.04070   -0.00000   -0.00157    0.00000
   S13    0.04242    0.03725    0.03734   -0.00000   -0.00268    0.00000
   S14    0.04242    0.03725    0.03734    0.00000    0.00268    0.00000
   S15    0.04242    0.03725    0.03734   -0.00000   -0.00268    0.00000
   S16    0.04242    0.03725    0.03734    0.00000    0.00268    0.00000
