data_crystal_structure_P1

_symmetry_space_group_name_H-M     'P 1'
_symmetry_Int_Tables_number        1

_cell_length_a                     4.22111
_cell_length_b                     5.90269
_cell_length_c                     5.90269
_cell_angle_alpha                  90.00000
_cell_angle_beta                   90.00283
_cell_angle_gamma                  90.00000
_cell_volume                       147.07055
_cell_formula_units_Z              1

loop_
_space_group_symop_operation_xyz
x,y,z

loop_
_atom_site_label
_atom_site_type_symbol
_atom_site_fract_x
_atom_site_fract_y
_atom_site_fract_z
_atom_site_occupancy
Ag1    Ag    1.00000   1.00000   0.00000   1.00000
Ag2    Ag    0.00000   0.50000   0.50000   1.00000
Ag3    Ag    1.00000   0.00000   0.50000   1.00000
Ag4    Ag    0.00000   0.50000   1.00000   1.00000
S1      S    0.69625   0.25000   0.24999   1.00000
S2      S    0.30375   0.75000   0.75001   1.00000
loop_
_atom_site_aniso_label
_atom_site_aniso_U_11
_atom_site_aniso_U_22
_atom_site_aniso_U_33
_atom_site_aniso_U_23
_atom_site_aniso_U_13
_atom_site_aniso_U_12
   Ag1    0.06342    0.03964    0.03967   -0.00426    0.00531    0.00529
   Ag2    0.06348    0.03962    0.03966   -0.00425   -0.00525   -0.00528
   Ag3    0.06348    0.03962    0.03966    0.00425   -0.00525    0.00528
   Ag4    0.06342    0.03964    0.03967    0.00426    0.00531   -0.00529
    S1    0.03646    0.03867    0.03871    0.00000    0.00004    0.00000
    S2    0.03646    0.03867    0.03871    0.00000    0.00004    0.00000
