data_crystal_structure_P1

_symmetry_space_group_name_H-M     'P 1'
_symmetry_Int_Tables_number        1

_cell_length_a                     5.90269
_cell_length_b                     5.90269
_cell_length_c                     4.22111
_cell_angle_alpha                  90.00000
_cell_angle_beta                   90.00369
_cell_angle_gamma                  90.00000
_cell_volume                       147.07056
_cell_formula_units_Z              1

loop_
_space_group_symop_operation_xyz
x,y,z

loop_
_atom_site_label
_atom_site_type_symbol
_atom_site_fract_x
_atom_site_fract_y
_atom_site_fract_z
_atom_site_occupancy
Ag1    Ag    0.00000   0.00000   1.00000   1.00000
Ag2    Ag    0.50000   0.50000   1.00000   1.00000
Ag3    Ag    0.50000   0.00000   1.00000   1.00000
Ag4    Ag    0.00000   0.50000   1.00000   1.00000
S1      S    0.75001   0.75000   0.30375   1.00000
S2      S    0.24999   0.25000   0.69625   1.00000
loop_
_atom_site_aniso_label
_atom_site_aniso_U_11
_atom_site_aniso_U_22
_atom_site_aniso_U_33
_atom_site_aniso_U_23
_atom_site_aniso_U_13
_atom_site_aniso_U_12
   Ag1    0.04637    0.05110    0.08576    0.00703    0.00687   -0.00561
   Ag2    0.04646    0.05109    0.08573   -0.00705   -0.00690   -0.00558
   Ag3    0.04646    0.05109    0.08573    0.00705   -0.00690    0.00558
   Ag4    0.04637    0.05110    0.08576   -0.00703    0.00687    0.00561
    S1    0.04519    0.04970    0.04964    0.00000   -0.00000   -0.00000
    S2    0.04519    0.04970    0.04964    0.00000   -0.00000   -0.00000
