data_crystal_structure_P1

_symmetry_space_group_name_H-M     'P 1'
_symmetry_Int_Tables_number        1

_cell_length_a                     12.23693
_cell_length_b                     4.21681
_cell_length_c                     4.40045
_cell_angle_alpha                  90.00000
_cell_angle_beta                   90.00000
_cell_angle_gamma                  90.00000
_cell_volume                       227.06689
_cell_formula_units_Z              1

loop_
_space_group_symop_operation_xyz
x,y,z

loop_
_atom_site_label
_atom_site_type_symbol
_atom_site_fract_x
_atom_site_fract_y
_atom_site_fract_z
_atom_site_occupancy
Sn1    Sn    0.62672   0.75000   0.43576   1.00000
Sn2    Sn    0.87328   0.25000   0.93576   1.00000
Sn3    Sn    0.37328   0.25000   0.56424   1.00000
Sn4    Sn    0.12672   0.75000   0.06424   1.00000
Se1    Se    0.14823   0.25000   0.50224   1.00000
Se2    Se    0.64823   0.25000   0.99776   1.00000
Se3    Se    0.35177   0.75000   0.00224   1.00000
Se4    Se    0.85177   0.75000   0.49776   1.00000
loop_
_atom_site_aniso_label
_atom_site_aniso_U_11
_atom_site_aniso_U_22
_atom_site_aniso_U_33
_atom_site_aniso_U_23
_atom_site_aniso_U_13
_atom_site_aniso_U_12
   Sn1    0.02877    0.02535    0.03045    0.00000    0.00320   -0.00000
   Sn2    0.02877    0.02535    0.03045    0.00000   -0.00320   -0.00000
   Sn3    0.02877    0.02535    0.03045    0.00000    0.00320   -0.00000
   Sn4    0.02877    0.02535    0.03045    0.00000   -0.00320   -0.00000
   Se1    0.02857    0.02088    0.02334    0.00000    0.00021   -0.00000
   Se2    0.02857    0.02088    0.02334    0.00000   -0.00021   -0.00000
   Se3    0.02857    0.02088    0.02334    0.00000   -0.00021   -0.00000
   Se4    0.02857    0.02088    0.02334    0.00000    0.00021   -0.00000
