data_crystal_structure_P1

_symmetry_space_group_name_H-M     'P 1'
_symmetry_Int_Tables_number        1

_cell_length_a                     13.74855
_cell_length_b                     4.05495
_cell_length_c                     11.30983
_cell_angle_alpha                  90.00000
_cell_angle_beta                   90.00000
_cell_angle_gamma                  90.00000
_cell_volume                       630.51874
_cell_formula_units_Z              1

loop_
_space_group_symop_operation_xyz
x,y,z

loop_
_atom_site_label
_atom_site_type_symbol
_atom_site_fract_x
_atom_site_fract_y
_atom_site_fract_z
_atom_site_occupancy
Sb1    Sb    0.12830   0.75000   0.03577   1.00000
Sb2    Sb    0.87170   0.25000   0.96423   1.00000
Sb3    Sb    0.37170   0.25000   0.53577   1.00000
Sb4    Sb    0.62830   0.75000   0.46423   1.00000
Sb5    Sb    0.03639   0.25000   0.33625   1.00000
Sb6    Sb    0.96361   0.75000   0.66375   1.00000
Sb7    Sb    0.46361   0.75000   0.83625   1.00000
Sb8    Sb    0.53639   0.25000   0.16375   1.00000
Se1    Se    0.95645   0.75000   0.13544   1.00000
Se2    Se    0.04355   0.25000   0.86456   1.00000
Se3    Se    0.54355   0.25000   0.63544   1.00000
Se4    Se    0.45645   0.75000   0.36456   1.00000
Se5    Se    0.19312   0.25000   0.18957   1.00000
Se6    Se    0.80688   0.75000   0.81043   1.00000
Se7    Se    0.30688   0.75000   0.68957   1.00000
Se8    Se    0.69312   0.25000   0.31043   1.00000
Se9    Se    0.62318   0.75000   0.04342   1.00000
Se10   Se    0.37682   0.25000   0.95658   1.00000
Se11   Se    0.87682   0.25000   0.54342   1.00000
Se12   Se    0.12318   0.75000   0.45658   1.00000
loop_
_atom_site_aniso_label
_atom_site_aniso_U_11
_atom_site_aniso_U_22
_atom_site_aniso_U_33
_atom_site_aniso_U_23
_atom_site_aniso_U_13
_atom_site_aniso_U_12
   Sb1    0.07827    0.05786    0.05521    0.00000    0.00872   -0.00000
   Sb2    0.07827    0.05786    0.05521   -0.00000    0.00872    0.00000
   Sb3    0.07827    0.05786    0.05521    0.00000   -0.00872    0.00000
   Sb4    0.07827    0.05786    0.05521   -0.00000   -0.00872   -0.00000
   Sb5    0.07291    0.04787    0.04596    0.00000   -0.00118   -0.00000
   Sb6    0.07291    0.04787    0.04596    0.00000   -0.00118   -0.00000
   Sb7    0.07291    0.04787    0.04596   -0.00000    0.00118   -0.00000
   Sb8    0.07291    0.04787    0.04596   -0.00000    0.00118   -0.00000
   Se1    0.07429    0.05008    0.04951   -0.00000    0.00566   -0.00000
   Se2    0.07429    0.05008    0.04951    0.00000    0.00566    0.00000
   Se3    0.07429    0.05008    0.04951   -0.00000   -0.00566    0.00000
   Se4    0.07429    0.05008    0.04951    0.00000   -0.00566   -0.00000
   Se5    0.06541    0.05983    0.04718    0.00000    0.00238   -0.00000
   Se6    0.06541    0.05983    0.04718   -0.00000    0.00238   -0.00000
   Se7    0.06541    0.05983    0.04718    0.00000   -0.00238   -0.00000
   Se8    0.06541    0.05983    0.04718   -0.00000   -0.00238   -0.00000
   Se9    0.06274    0.05760    0.04459   -0.00000    0.00040   -0.00000
  Se10    0.06274    0.05760    0.04459    0.00000    0.00040    0.00000
  Se11    0.06274    0.05760    0.04459   -0.00000   -0.00040    0.00000
  Se12    0.06274    0.05760    0.04459    0.00000   -0.00040   -0.00000
