data_crystal_structure_P1

_symmetry_space_group_name_H-M     'P 1'
_symmetry_Int_Tables_number        1

_cell_length_a                     4.96911
_cell_length_b                     4.96911
_cell_length_c                     4.96911
_cell_angle_alpha                  60.00000
_cell_angle_beta                   60.00000
_cell_angle_gamma                  60.00000
_cell_volume                       86.76047
_cell_formula_units_Z              1

loop_
_space_group_symop_operation_xyz
x,y,z

loop_
_atom_site_label
_atom_site_type_symbol
_atom_site_fract_x
_atom_site_fract_y
_atom_site_fract_z
_atom_site_occupancy
Ba1    Ba    1.00000   0.00000   1.00000   1.00000
Te1    Te    0.50000   0.50000   0.50000   1.00000
loop_
_atom_site_aniso_label
_atom_site_aniso_U_11
_atom_site_aniso_U_22
_atom_site_aniso_U_33
_atom_site_aniso_U_23
_atom_site_aniso_U_13
_atom_site_aniso_U_12
   Ba1    0.00210    0.00210    0.00210   -0.00070   -0.00070   -0.00070
   Te1    0.00212    0.00212    0.00212   -0.00071   -0.00071   -0.00071
