data_crystal_structure_P1

_symmetry_space_group_name_H-M     'P 1'
_symmetry_Int_Tables_number        1

_cell_length_a                     4.74604
_cell_length_b                     4.74604
_cell_length_c                     7.83419
_cell_angle_alpha                  90.00000
_cell_angle_beta                   90.00000
_cell_angle_gamma                  120.00000
_cell_volume                       152.82286
_cell_formula_units_Z              1

loop_
_space_group_symop_operation_xyz
x,y,z

loop_
_atom_site_label
_atom_site_type_symbol
_atom_site_fract_x
_atom_site_fract_y
_atom_site_fract_z
_atom_site_occupancy
Sr1    Sr    1.00000   0.00000   0.00000   1.00000
Mg1    Mg    0.66667   0.33333   0.37384   1.00000
Mg2    Mg    0.33333   0.66667   0.62616   1.00000
Sb1    Sb    0.33333   0.66667   0.25506   1.00000
Sb2    Sb    0.66667   0.33333   0.74494   1.00000
loop_
_atom_site_aniso_label
_atom_site_aniso_U_11
_atom_site_aniso_U_22
_atom_site_aniso_U_33
_atom_site_aniso_U_23
_atom_site_aniso_U_13
_atom_site_aniso_U_12
   Sr1    0.01755    0.01755    0.01663   -0.00000    0.00000    0.00878
   Mg1    0.01553    0.01553    0.01686   -0.00000    0.00000    0.00777
   Mg2    0.01553    0.01553    0.01686   -0.00000    0.00000    0.00777
   Sb1    0.01327    0.01327    0.01351   -0.00000    0.00000    0.00664
   Sb2    0.01327    0.01327    0.01351   -0.00000    0.00000    0.00664
