data_crystal_structure_P1

_symmetry_space_group_name_H-M     'P 1'
_symmetry_Int_Tables_number        1

_cell_length_a                     8.93684
_cell_length_b                     8.93684
_cell_length_c                     16.15752
_cell_angle_alpha                  90.00000
_cell_angle_beta                   90.00000
_cell_angle_gamma                  90.00000
_cell_volume                       1290.45383
_cell_formula_units_Z              1

loop_
_space_group_symop_operation_xyz
x,y,z

loop_
_atom_site_label
_atom_site_type_symbol
_atom_site_fract_x
_atom_site_fract_y
_atom_site_fract_z
_atom_site_occupancy
Tl1    Tl    0.98633   0.80390   0.80684   1.00000
Tl2    Tl    0.87788   0.67095   0.37655   1.00000
Tl3    Tl    0.19610   0.98633   0.05684   1.00000
Tl4    Tl    0.18821   0.38309   0.57150   1.00000
Tl5    Tl    0.67095   0.12212   0.12655   1.00000
Tl6    Tl    0.38309   0.81179   0.32150   1.00000
Tl7    Tl    0.12212   0.32905   0.87655   1.00000
Tl8    Tl    0.01367   0.19610   0.30684   1.00000
Tl9    Tl    0.61691   0.18821   0.82150   1.00000
Tl10   Tl    0.81179   0.61691   0.07150   1.00000
Tl11   Tl    0.32905   0.87788   0.62655   1.00000
Tl12   Tl    0.80390   0.01367   0.55684   1.00000
Pb1    Pb    0.72077   0.49036   0.63161   1.00000
Pb2    Pb    0.50964   0.72077   0.88161   1.00000
Pb3    Pb    0.49036   0.27923   0.38161   1.00000
Pb4    Pb    0.27923   0.50964   0.13161   1.00000
Br1    Br    0.34789   0.53098   0.76153   1.00000
Br2    Br    0.48508   0.78582   0.10955   1.00000
Br3    Br    0.21418   0.48508   0.35955   1.00000
Br4    Br    0.68893   0.01011   0.35034   1.00000
Br5    Br    0.64704   0.83750   0.72746   1.00000
Br6    Br    0.51492   0.21418   0.60955   1.00000
Br7    Br    0.65211   0.46902   0.26153   1.00000
Br8    Br    0.46902   0.34789   0.01153   1.00000
Br9    Br    0.01011   0.31107   0.10034   1.00000
Br10   Br    0.94975   0.22162   0.70161   1.00000
Br11   Br    0.78582   0.51492   0.85955   1.00000
Br12   Br    0.77838   0.94975   0.95161   1.00000
Br13   Br    0.22162   0.05025   0.45161   1.00000
Br14   Br    0.16250   0.64704   0.97746   1.00000
Br15   Br    0.31107   0.98989   0.85034   1.00000
Br16   Br    0.83750   0.35296   0.47746   1.00000
Br17   Br    0.98989   0.68893   0.60034   1.00000
Br18   Br    0.53098   0.65211   0.51153   1.00000
Br19   Br    0.35296   0.16250   0.22746   1.00000
Br20   Br    0.05025   0.77838   0.20161   1.00000
loop_
_atom_site_aniso_label
_atom_site_aniso_U_11
_atom_site_aniso_U_22
_atom_site_aniso_U_33
_atom_site_aniso_U_23
_atom_site_aniso_U_13
_atom_site_aniso_U_12
   Tl1    0.01745    0.03537    0.01865   -0.00507    0.00026   -0.00889
   Tl2    0.02958    0.01702    0.02654    0.00201    0.00230    0.00096
   Tl3    0.03537    0.01745    0.01865    0.00026    0.00507    0.00889
   Tl4    0.02283    0.02765    0.02704    0.00018    0.00146    0.01074
   Tl5    0.01702    0.02958    0.02654   -0.00230    0.00201   -0.00096
   Tl6    0.02765    0.02283    0.02704   -0.00146    0.00018   -0.01074
   Tl7    0.02958    0.01702    0.02654   -0.00201   -0.00230    0.00096
   Tl8    0.01745    0.03537    0.01865    0.00507   -0.00026   -0.00889
   Tl9    0.02765    0.02283    0.02704    0.00146   -0.00018   -0.01074
  Tl10    0.02283    0.02765    0.02704   -0.00018   -0.00146    0.01074
  Tl11    0.01702    0.02958    0.02654    0.00230   -0.00201   -0.00096
  Tl12    0.03537    0.01745    0.01865   -0.00026   -0.00507    0.00889
   Pb1    0.01832    0.01632    0.01368    0.00074   -0.00249   -0.00349
   Pb2    0.01632    0.01832    0.01368   -0.00249   -0.00074    0.00349
   Pb3    0.01632    0.01832    0.01368    0.00249    0.00074    0.00349
   Pb4    0.01832    0.01632    0.01368   -0.00074    0.00249   -0.00349
   Br1    0.03523    0.03073    0.01730   -0.00607   -0.00188   -0.01417
   Br2    0.01351    0.01483    0.03638   -0.00061    0.00308   -0.00068
   Br3    0.01483    0.01351    0.03638    0.00308    0.00061    0.00068
   Br4    0.01349    0.01351    0.02552   -0.00098   -0.00232   -0.00034
   Br5    0.01364    0.02124    0.01339    0.00155    0.00043   -0.00004
   Br6    0.01351    0.01483    0.03638    0.00061   -0.00308   -0.00068
   Br7    0.03523    0.03073    0.01730    0.00607    0.00188   -0.01417
   Br8    0.03073    0.03523    0.01730   -0.00188    0.00607    0.01417
   Br9    0.01351    0.01349    0.02552    0.00232   -0.00098    0.00034
  Br10    0.01924    0.03524    0.01601   -0.00450   -0.00216   -0.00238
  Br11    0.01483    0.01351    0.03638   -0.00308   -0.00061    0.00068
  Br12    0.03524    0.01924    0.01601   -0.00216    0.00450    0.00238
  Br13    0.03524    0.01924    0.01601    0.00216   -0.00450    0.00238
  Br14    0.02124    0.01364    0.01339    0.00043   -0.00155    0.00004
  Br15    0.01349    0.01351    0.02552    0.00098    0.00232   -0.00034
  Br16    0.02124    0.01364    0.01339   -0.00043    0.00155    0.00004
  Br17    0.01351    0.01349    0.02552   -0.00232    0.00098    0.00034
  Br18    0.03073    0.03523    0.01730    0.00188   -0.00607    0.01417
  Br19    0.01364    0.02124    0.01339   -0.00155   -0.00043   -0.00004
  Br20    0.01924    0.03524    0.01601    0.00450    0.00216   -0.00238
