data_crystal_structure_P1

_symmetry_space_group_name_H-M     'P 1'
_symmetry_Int_Tables_number        1

_cell_length_a                     4.52599
_cell_length_b                     4.52599
_cell_length_c                     7.26962
_cell_angle_alpha                  90.00000
_cell_angle_beta                   90.00000
_cell_angle_gamma                  120.00000
_cell_volume                       128.96419
_cell_formula_units_Z              1

loop_
_space_group_symop_operation_xyz
x,y,z

loop_
_atom_site_label
_atom_site_type_symbol
_atom_site_fract_x
_atom_site_fract_y
_atom_site_fract_z
_atom_site_occupancy
Ca1    Ca    1.00000   1.00000   0.00000   1.00000
Zn1    Zn    0.33333   0.66667   0.64249   1.00000
Zn2    Zn    0.66667   0.33333   0.35751   1.00000
Sb1    Sb    0.33333   0.66667   0.25718   1.00000
Sb2    Sb    0.66667   0.33333   0.74282   1.00000
loop_
_atom_site_aniso_label
_atom_site_aniso_U_11
_atom_site_aniso_U_22
_atom_site_aniso_U_33
_atom_site_aniso_U_23
_atom_site_aniso_U_13
_atom_site_aniso_U_12
   Ca1    0.03521    0.03699    0.01819    0.00001    0.00000    0.01827
   Zn1    0.03459    0.03633    0.02293    0.00000   -0.00001    0.01794
   Zn2    0.03459    0.03633    0.02293    0.00000   -0.00001    0.01794
   Sb1    0.03024    0.03175    0.01630    0.00001    0.00000    0.01569
   Sb2    0.03024    0.03175    0.01630    0.00001    0.00000    0.01569
