data_crystal_structure_P1

_symmetry_space_group_name_H-M     'P 1'
_symmetry_Int_Tables_number        1

_cell_length_a                     5.95907
_cell_length_b                     5.95907
_cell_length_c                     5.95907
_cell_angle_alpha                  90.00000
_cell_angle_beta                   90.00000
_cell_angle_gamma                  90.00000
_cell_volume                       211.61018
_cell_formula_units_Z              1

loop_
_space_group_symop_operation_xyz
x,y,z

loop_
_atom_site_label
_atom_site_type_symbol
_atom_site_fract_x
_atom_site_fract_y
_atom_site_fract_z
_atom_site_occupancy
Zn1    Zn    1.00000   0.50000   0.50000   1.00000
Zn2    Zn    0.50000   0.00000   0.00000   1.00000
Zn3    Zn    0.00000   0.00000   0.50000   1.00000
Zn4    Zn    0.00000   0.50000   0.00000   1.00000
Zn5    Zn    0.50000   0.00000   0.50000   1.00000
Zn6    Zn    0.50000   0.50000   0.00000   1.00000
As1    As    0.25000   0.25000   0.25000   1.00000
As2    As    0.75000   0.25000   0.75000   1.00000
As3    As    0.75000   0.75000   0.25000   1.00000
As4    As    0.25000   0.75000   0.75000   1.00000
loop_
_atom_site_aniso_label
_atom_site_aniso_U_11
_atom_site_aniso_U_22
_atom_site_aniso_U_33
_atom_site_aniso_U_23
_atom_site_aniso_U_13
_atom_site_aniso_U_12
   Zn1    0.01727    0.00959    0.00959    0.00000   -0.00000   -0.00000
   Zn2    0.01727    0.00959    0.00959    0.00000   -0.00000   -0.00000
   Zn3    0.00959    0.00959    0.01727   -0.00000    0.00000    0.00000
   Zn4    0.00959    0.01727    0.00959    0.00000    0.00000   -0.00000
   Zn5    0.00959    0.01727    0.00959    0.00000    0.00000   -0.00000
   Zn6    0.00959    0.00959    0.01727   -0.00000    0.00000    0.00000
   As1    0.00976    0.00976    0.00976    0.00140    0.00140    0.00140
   As2    0.00976    0.00976    0.00976   -0.00140    0.00140   -0.00140
   As3    0.00976    0.00976    0.00976   -0.00140   -0.00140    0.00140
   As4    0.00976    0.00976    0.00976    0.00140   -0.00140   -0.00140
