data_crystal_structure_P1

_symmetry_space_group_name_H-M     'P 1'
_symmetry_Int_Tables_number        1

_cell_length_a                     12.45093
_cell_length_b                     12.45093
_cell_length_c                     12.45093
_cell_angle_alpha                  124.78745
_cell_angle_beta                   124.78745
_cell_angle_gamma                  81.89039
_cell_volume                       1252.28940
_cell_formula_units_Z              1

loop_
_space_group_symop_operation_xyz
x,y,z

loop_
_atom_site_label
_atom_site_type_symbol
_atom_site_fract_x
_atom_site_fract_y
_atom_site_fract_z
_atom_site_occupancy
K1      K    0.25964   0.87500   0.88464   1.00000
K2      K    0.62500   0.24036   0.11536   1.00000
K3      K    0.12500   0.50964   0.88464   1.00000
K4      K    0.99036   0.37500   0.11536   1.00000
K5      K    0.49036   0.37500   0.61536   1.00000
K6      K    0.12500   0.00964   0.38464   1.00000
K7      K    0.62500   0.74036   0.61536   1.00000
K8      K    0.75964   0.87500   0.38464   1.00000
K9      K    0.37339   0.37339   0.24677   1.00000
K10     K    0.12339   0.37661   0.50000   1.00000
K11     K    0.87661   0.62339   0.50000   1.00000
K12     K    0.12661   0.12661   0.75323   1.00000
K13     K    0.37661   0.87661   0.25323   1.00000
K14     K    0.62661   0.87339   0.00000   1.00000
K15     K    0.87339   0.62661   1.00000   1.00000
K16     K    0.62339   0.12339   0.74677   1.00000
Sn1    Sn    0.50673   0.55734   0.17719   1.00000
Sn2    Sn    0.30734   0.63015   0.55061   1.00000
Sn3    Sn    0.07954   0.75673   0.44939   1.00000
Sn4    Sn    0.74327   0.42046   0.55061   1.00000
Sn5    Sn    0.86985   0.19266   0.44939   1.00000
Sn6    Sn    0.17046   0.11985   0.17719   1.00000
Sn7    Sn    0.94266   0.99327   0.82281   1.00000
Sn8    Sn    0.38015   0.32954   0.82281   1.00000
Sn9    Sn    0.24327   0.69266   0.32281   1.00000
Sn10   Sn    0.44266   0.61985   0.94939   1.00000
Sn11   Sn    0.67046   0.49327   0.05061   1.00000
Sn12   Sn    0.00673   0.82954   0.94939   1.00000
Sn13   Sn    0.88015   0.05734   0.05061   1.00000
Sn14   Sn    0.57954   0.13015   0.32281   1.00000
Sn15   Sn    0.80734   0.25673   0.67719   1.00000
Sn16   Sn    0.36985   0.92046   0.67719   1.00000
loop_
_atom_site_aniso_label
_atom_site_aniso_U_11
_atom_site_aniso_U_22
_atom_site_aniso_U_33
_atom_site_aniso_U_23
_atom_site_aniso_U_13
_atom_site_aniso_U_12
    K1    0.02909    0.04396    0.03292    0.02601    0.01942    0.01261
    K2    0.04396    0.02909    0.03292    0.01942    0.02601    0.01261
    K3    0.03012    0.02909    0.03292    0.01367    0.02027    0.00568
    K4    0.02909    0.03012    0.03292    0.02027    0.01367    0.00568
    K5    0.02909    0.04396    0.03292    0.02601    0.01942    0.01261
    K6    0.04396    0.02909    0.03292    0.01942    0.02601    0.01261
    K7    0.03012    0.02909    0.03292    0.01367    0.02027    0.00568
    K8    0.02909    0.03012    0.03292    0.02027    0.01367    0.00568
    K9    0.03215    0.03501    0.03759    0.02266    0.02266    0.01042
   K10    0.03501    0.03501    0.03188    0.02040    0.02040    0.00770
   K11    0.03215    0.03215    0.03188    0.01803    0.01803    0.00484
   K12    0.03501    0.03215    0.03759    0.02266    0.02266    0.01042
   K13    0.03215    0.03501    0.03759    0.02266    0.02266    0.01042
   K14    0.03501    0.03501    0.03188    0.02040    0.02040    0.00770
   K15    0.03215    0.03215    0.03188    0.01803    0.01803    0.00484
   K16    0.03501    0.03215    0.03759    0.02266    0.02266    0.01042
   Sn1    0.03181    0.03131    0.02577    0.01887    0.02005    0.01020
   Sn2    0.03131    0.02327    0.02940    0.01869    0.01751    0.00857
   Sn3    0.02092    0.03181    0.02940    0.01793    0.01674    0.00764
   Sn4    0.03181    0.02092    0.02940    0.01674    0.01793    0.00764
   Sn5    0.02327    0.03131    0.02940    0.01751    0.01869    0.00857
   Sn6    0.02092    0.02327    0.02577    0.01220    0.01101    0.00074
   Sn7    0.03131    0.03181    0.02577    0.02005    0.01887    0.01020
   Sn8    0.02327    0.02092    0.02577    0.01101    0.01220    0.00074
   Sn9    0.03181    0.03131    0.02577    0.01887    0.02005    0.01020
  Sn10    0.03131    0.02327    0.02940    0.01869    0.01751    0.00857
  Sn11    0.02092    0.03181    0.02940    0.01793    0.01674    0.00764
  Sn12    0.03181    0.02092    0.02940    0.01674    0.01793    0.00764
  Sn13    0.02327    0.03131    0.02940    0.01751    0.01869    0.00857
  Sn14    0.02092    0.02327    0.02577    0.01220    0.01101    0.00074
  Sn15    0.03131    0.03181    0.02577    0.02005    0.01887    0.01020
  Sn16    0.02327    0.02092    0.02577    0.01101    0.01220    0.00074
