data_crystal_structure_P1

_symmetry_space_group_name_H-M     'P 1'
_symmetry_Int_Tables_number        1

_cell_length_a                     11.29744
_cell_length_b                     11.29744
_cell_length_c                     11.29744
_cell_angle_alpha                  90.00000
_cell_angle_beta                   90.00000
_cell_angle_gamma                  90.00000
_cell_volume                       1441.91786
_cell_formula_units_Z              1

loop_
_space_group_symop_operation_xyz
x,y,z

loop_
_atom_site_label
_atom_site_type_symbol
_atom_site_fract_x
_atom_site_fract_y
_atom_site_fract_z
_atom_site_occupancy
Ga1    Ga    0.00972   0.00972   0.00972   1.00000
Ga2    Ga    0.49028   0.99028   0.50972   1.00000
Ga3    Ga    0.50972   0.49028   0.99028   1.00000
Ga4    Ga    0.99028   0.50972   0.49028   1.00000
Ag1    Ag    0.32344   0.56928   0.63462   1.00000
Ag2    Ag    0.63462   0.32344   0.56928   1.00000
Ag3    Ag    0.56928   0.63462   0.32344   1.00000
Ag4    Ag    0.93072   0.36538   0.82344   1.00000
Ag5    Ag    0.13462   0.17656   0.43072   1.00000
Ag6    Ag    0.43072   0.13462   0.17656   1.00000
Ag7    Ag    0.86538   0.67656   0.06928   1.00000
Ag8    Ag    0.36538   0.82344   0.93072   1.00000
Ag9    Ag    0.06928   0.86538   0.67656   1.00000
Ag10   Ag    0.82344   0.93072   0.36538   1.00000
Ag11   Ag    0.67656   0.06928   0.86538   1.00000
Ag12   Ag    0.17656   0.43072   0.13462   1.00000
Ag13   Ag    0.72480   0.73133   0.53033   1.00000
Ag14   Ag    0.53033   0.72480   0.73133   1.00000
Ag15   Ag    0.73133   0.53033   0.72480   1.00000
Ag16   Ag    0.76867   0.46967   0.22480   1.00000
Ag17   Ag    0.03033   0.77520   0.26867   1.00000
Ag18   Ag    0.26867   0.03033   0.77520   1.00000
Ag19   Ag    0.96967   0.27520   0.23133   1.00000
Ag20   Ag    0.46967   0.22480   0.76867   1.00000
Ag21   Ag    0.23133   0.96967   0.27520   1.00000
Ag22   Ag    0.22480   0.76867   0.46967   1.00000
Ag23   Ag    0.27520   0.23133   0.96967   1.00000
Ag24   Ag    0.77520   0.26867   0.03033   1.00000
Ag25   Ag    0.32925   0.53921   0.36538   1.00000
Ag26   Ag    0.36538   0.32925   0.53921   1.00000
Ag27   Ag    0.53921   0.36538   0.32925   1.00000
Ag28   Ag    0.96079   0.63462   0.82925   1.00000
Ag29   Ag    0.86538   0.17075   0.46079   1.00000
Ag30   Ag    0.46079   0.86538   0.17075   1.00000
Ag31   Ag    0.13462   0.67075   0.03921   1.00000
Ag32   Ag    0.63462   0.82925   0.96079   1.00000
Ag33   Ag    0.03921   0.13462   0.67075   1.00000
Ag34   Ag    0.82925   0.96079   0.63462   1.00000
Ag35   Ag    0.67075   0.03921   0.13462   1.00000
Ag36   Ag    0.17075   0.46079   0.86538   1.00000
Se1    Se    0.52229   0.52229   0.52229   1.00000
Se2    Se    0.97771   0.47771   0.02229   1.00000
Se3    Se    0.02229   0.97771   0.47771   1.00000
Se4    Se    0.47771   0.02229   0.97771   1.00000
Se5    Se    0.13236   0.13236   0.13236   1.00000
Se6    Se    0.36764   0.86764   0.63236   1.00000
Se7    Se    0.63236   0.36764   0.86764   1.00000
Se8    Se    0.86764   0.63236   0.36764   1.00000
Se9    Se    0.76234   0.76234   0.76234   1.00000
Se10   Se    0.73766   0.23766   0.26234   1.00000
Se11   Se    0.26234   0.73766   0.23766   1.00000
Se12   Se    0.23766   0.26234   0.73766   1.00000
Se13   Se    0.90010   0.12733   0.86655   1.00000
Se14   Se    0.86655   0.90010   0.12733   1.00000
Se15   Se    0.12733   0.86655   0.90010   1.00000
Se16   Se    0.37267   0.13345   0.40010   1.00000
Se17   Se    0.36655   0.59990   0.87267   1.00000
Se18   Se    0.87267   0.36655   0.59990   1.00000
Se19   Se    0.63345   0.09990   0.62733   1.00000
Se20   Se    0.13345   0.40010   0.37267   1.00000
Se21   Se    0.62733   0.63345   0.09990   1.00000
Se22   Se    0.40010   0.37267   0.13345   1.00000
Se23   Se    0.09990   0.62733   0.63345   1.00000
Se24   Se    0.59990   0.87267   0.36655   1.00000
loop_
_atom_site_aniso_label
_atom_site_aniso_U_11
_atom_site_aniso_U_22
_atom_site_aniso_U_33
_atom_site_aniso_U_23
_atom_site_aniso_U_13
_atom_site_aniso_U_12
   Ga1    0.01253    0.01253    0.01253    0.00027    0.00027    0.00027
   Ga2    0.01253    0.01253    0.01253   -0.00027   -0.00027    0.00027
   Ga3    0.01253    0.01253    0.01253    0.00027   -0.00027   -0.00027
   Ga4    0.01253    0.01253    0.01253   -0.00027    0.00027   -0.00027
   Ag1    0.02230    0.03412    0.02618   -0.00927   -0.00066    0.00759
   Ag2    0.02618    0.02230    0.03412    0.00759   -0.00927   -0.00066
   Ag3    0.03412    0.02618    0.02230   -0.00066    0.00759   -0.00927
   Ag4    0.03412    0.02618    0.02230    0.00066   -0.00759   -0.00927
   Ag5    0.02618    0.02230    0.03412    0.00759    0.00927    0.00066
   Ag6    0.03412    0.02618    0.02230    0.00066    0.00759    0.00927
   Ag7    0.02618    0.02230    0.03412   -0.00759    0.00927   -0.00066
   Ag8    0.02618    0.02230    0.03412   -0.00759   -0.00927    0.00066
   Ag9    0.03412    0.02618    0.02230   -0.00066   -0.00759    0.00927
  Ag10    0.02230    0.03412    0.02618   -0.00927    0.00066   -0.00759
  Ag11    0.02230    0.03412    0.02618    0.00927   -0.00066   -0.00759
  Ag12    0.02230    0.03412    0.02618    0.00927    0.00066    0.00759
  Ag13    0.03490    0.02725    0.01589   -0.00140   -0.00020    0.00580
  Ag14    0.01589    0.03490    0.02725    0.00580   -0.00140   -0.00020
  Ag15    0.02725    0.01589    0.03490   -0.00020    0.00580   -0.00140
  Ag16    0.02725    0.01589    0.03490    0.00020   -0.00580   -0.00140
  Ag17    0.01589    0.03490    0.02725    0.00580    0.00140    0.00020
  Ag18    0.02725    0.01589    0.03490    0.00020    0.00580    0.00140
  Ag19    0.01589    0.03490    0.02725   -0.00580    0.00140   -0.00020
  Ag20    0.01589    0.03490    0.02725   -0.00580   -0.00140    0.00020
  Ag21    0.02725    0.01589    0.03490   -0.00020   -0.00580    0.00140
  Ag22    0.03490    0.02725    0.01589   -0.00140    0.00020   -0.00580
  Ag23    0.03490    0.02725    0.01589    0.00140   -0.00020   -0.00580
  Ag24    0.03490    0.02725    0.01589    0.00140    0.00020    0.00580
  Ag25    0.01786    0.02523    0.03430    0.00748   -0.00441   -0.00122
  Ag26    0.03430    0.01786    0.02523   -0.00122    0.00748   -0.00441
  Ag27    0.02523    0.03430    0.01786   -0.00441   -0.00122    0.00748
  Ag28    0.02523    0.03430    0.01786    0.00441    0.00122    0.00748
  Ag29    0.03430    0.01786    0.02523   -0.00122   -0.00748    0.00441
  Ag30    0.02523    0.03430    0.01786    0.00441   -0.00122   -0.00748
  Ag31    0.03430    0.01786    0.02523    0.00122   -0.00748   -0.00441
  Ag32    0.03430    0.01786    0.02523    0.00122    0.00748    0.00441
  Ag33    0.02523    0.03430    0.01786   -0.00441    0.00122   -0.00748
  Ag34    0.01786    0.02523    0.03430    0.00748    0.00441    0.00122
  Ag35    0.01786    0.02523    0.03430   -0.00748   -0.00441    0.00122
  Ag36    0.01786    0.02523    0.03430   -0.00748    0.00441   -0.00122
   Se1    0.01619    0.01619    0.01619   -0.00050   -0.00050   -0.00050
   Se2    0.01619    0.01619    0.01619    0.00050    0.00050   -0.00050
   Se3    0.01619    0.01619    0.01619   -0.00050    0.00050    0.00050
   Se4    0.01619    0.01619    0.01619    0.00050   -0.00050    0.00050
   Se5    0.01372    0.01372    0.01372   -0.00073   -0.00073   -0.00073
   Se6    0.01372    0.01372    0.01372    0.00073    0.00073   -0.00073
   Se7    0.01372    0.01372    0.01372   -0.00073    0.00073    0.00073
   Se8    0.01372    0.01372    0.01372    0.00073   -0.00073    0.00073
   Se9    0.01325    0.01325    0.01325    0.00034    0.00034    0.00034
  Se10    0.01325    0.01325    0.01325   -0.00034   -0.00034    0.00034
  Se11    0.01325    0.01325    0.01325    0.00034   -0.00034   -0.00034
  Se12    0.01325    0.01325    0.01325   -0.00034    0.00034   -0.00034
  Se13    0.01368    0.01577    0.01431    0.00327    0.00069    0.00273
  Se14    0.01431    0.01368    0.01577    0.00273    0.00327    0.00069
  Se15    0.01577    0.01431    0.01368    0.00069    0.00273    0.00327
  Se16    0.01577    0.01431    0.01368   -0.00069   -0.00273    0.00327
  Se17    0.01431    0.01368    0.01577    0.00273   -0.00327   -0.00069
  Se18    0.01577    0.01431    0.01368   -0.00069    0.00273   -0.00327
  Se19    0.01431    0.01368    0.01577   -0.00273   -0.00327    0.00069
  Se20    0.01431    0.01368    0.01577   -0.00273    0.00327   -0.00069
  Se21    0.01577    0.01431    0.01368    0.00069   -0.00273   -0.00327
  Se22    0.01368    0.01577    0.01431    0.00327   -0.00069   -0.00273
  Se23    0.01368    0.01577    0.01431   -0.00327    0.00069   -0.00273
  Se24    0.01368    0.01577    0.01431   -0.00327   -0.00069    0.00273
