data_crystal_structure_P1

_symmetry_space_group_name_H-M     'P 1'
_symmetry_Int_Tables_number        1

_cell_length_a                     4.35335
_cell_length_b                     4.35335
_cell_length_c                     24.59321
_cell_angle_alpha                  90.00000
_cell_angle_beta                   90.00000
_cell_angle_gamma                  120.00000
_cell_volume                       403.63877
_cell_formula_units_Z              1

loop_
_space_group_symop_operation_xyz
x,y,z

loop_
_atom_site_label
_atom_site_type_symbol
_atom_site_fract_x
_atom_site_fract_y
_atom_site_fract_z
_atom_site_occupancy
Sb1    Sb    0.00000   0.00000   0.13309   1.00000
Sb2    Sb    0.00000   0.00000   0.86691   1.00000
Sb3    Sb    0.33333   0.66667   0.29401   1.00000
Sb4    Sb    0.66667   0.33333   0.70599   1.00000
Sb5    Sb    0.33333   0.66667   0.53152   1.00000
Sb6    Sb    0.66667   0.33333   0.46848   1.00000
Te1    Te    0.33333   0.66667   0.06448   1.00000
Te2    Te    0.66667   0.33333   0.93552   1.00000
Te3    Te    0.33333   0.66667   0.78613   1.00000
Te4    Te    0.66667   0.33333   0.21387   1.00000
Te5    Te    0.00000   0.00000   0.36357   1.00000
Te6    Te    0.00000   0.00000   0.63643   1.00000
loop_
_atom_site_aniso_label
_atom_site_aniso_U_11
_atom_site_aniso_U_22
_atom_site_aniso_U_33
_atom_site_aniso_U_23
_atom_site_aniso_U_13
_atom_site_aniso_U_12
   Sb1    0.00225    0.00225    0.00245   -0.00000   -0.00000    0.00113
   Sb2    0.00225    0.00225    0.00245   -0.00000   -0.00000    0.00113
   Sb3    0.00212    0.00212    0.00229   -0.00000   -0.00000    0.00106
   Sb4    0.00212    0.00212    0.00229   -0.00000   -0.00000    0.00106
   Sb5    0.00207    0.00207    0.00210   -0.00000   -0.00000    0.00104
   Sb6    0.00207    0.00207    0.00210   -0.00000   -0.00000    0.00104
   Te1    0.00224    0.00224    0.00215   -0.00000   -0.00000    0.00112
   Te2    0.00224    0.00224    0.00215   -0.00000   -0.00000    0.00112
   Te3    0.00194    0.00194    0.00207   -0.00000   -0.00000    0.00097
   Te4    0.00194    0.00194    0.00207   -0.00000   -0.00000    0.00097
   Te5    0.00188    0.00189    0.00184   -0.00000   -0.00000    0.00094
   Te6    0.00188    0.00189    0.00184   -0.00000   -0.00000    0.00094
