data_crystal_structure_P1

_symmetry_space_group_name_H-M     'P 1'
_symmetry_Int_Tables_number        1

_cell_length_a                     10.92550
_cell_length_b                     10.92550
_cell_length_c                     10.92550
_cell_angle_alpha                  23.48548
_cell_angle_beta                   23.48548
_cell_angle_gamma                  23.48548
_cell_volume                       181.87902
_cell_formula_units_Z              1

loop_
_space_group_symop_operation_xyz
x,y,z

loop_
_atom_site_label
_atom_site_type_symbol
_atom_site_fract_x
_atom_site_fract_y
_atom_site_fract_z
_atom_site_occupancy
Bi1    Bi    0.60235   0.60235   0.60235   1.00000
Bi2    Bi    0.39765   0.39765   0.39765   1.00000
Te1    Te    0.78495   0.78495   0.78495   1.00000
Te2    Te    0.00000   0.00000   0.00000   1.00000
Te3    Te    0.21505   0.21505   0.21505   1.00000
loop_
_atom_site_aniso_label
_atom_site_aniso_U_11
_atom_site_aniso_U_22
_atom_site_aniso_U_33
_atom_site_aniso_U_23
_atom_site_aniso_U_13
_atom_site_aniso_U_12
   Bi1    0.02021    0.02017    0.02019   -0.00958   -0.00965   -0.00964
   Bi2    0.02021    0.02017    0.02019   -0.00958   -0.00965   -0.00964
   Te1    0.02048    0.02042    0.02047   -0.00978   -0.00984   -0.00981
   Te2    0.01944    0.01944    0.01945   -0.00925   -0.00927   -0.00927
   Te3    0.02048    0.02042    0.02047   -0.00978   -0.00984   -0.00981
