data_crystal_structure_P1

_symmetry_space_group_name_H-M     'P 1'
_symmetry_Int_Tables_number        1

_cell_length_a                     6.30784
_cell_length_b                     7.78288
_cell_length_c                     8.23918
_cell_angle_alpha                  90.00000
_cell_angle_beta                   90.00000
_cell_angle_gamma                  90.00000
_cell_volume                       404.48761
_cell_formula_units_Z              1

loop_
_space_group_symop_operation_xyz
x,y,z

loop_
_atom_site_label
_atom_site_type_symbol
_atom_site_fract_x
_atom_site_fract_y
_atom_site_fract_z
_atom_site_occupancy
Zn1    Zn    0.45866   0.10601   0.87238   1.00000
Zn2    Zn    0.95866   0.39399   0.12762   1.00000
Zn3    Zn    0.54134   0.60601   0.62762   1.00000
Zn4    Zn    0.04134   0.89399   0.37238   1.00000
Zn5    Zn    0.54134   0.89399   0.12762   1.00000
Zn6    Zn    0.04134   0.60601   0.87238   1.00000
Zn7    Zn    0.45866   0.39399   0.37238   1.00000
Zn8    Zn    0.95866   0.10601   0.62762   1.00000
Sb1    Sb    0.14222   0.08294   0.10867   1.00000
Sb2    Sb    0.64222   0.41706   0.89133   1.00000
Sb3    Sb    0.85778   0.58294   0.39133   1.00000
Sb4    Sb    0.35778   0.91706   0.60867   1.00000
Sb5    Sb    0.85778   0.91706   0.89133   1.00000
Sb6    Sb    0.35778   0.58294   0.10867   1.00000
Sb7    Sb    0.14222   0.41706   0.60867   1.00000
Sb8    Sb    0.64222   0.08294   0.39133   1.00000
loop_
_atom_site_aniso_label
_atom_site_aniso_U_11
_atom_site_aniso_U_22
_atom_site_aniso_U_33
_atom_site_aniso_U_23
_atom_site_aniso_U_13
_atom_site_aniso_U_12
   Zn1    0.00364    0.00301    0.00306   -0.00026    0.00014   -0.00038
   Zn2    0.00364    0.00301    0.00306   -0.00026   -0.00014    0.00038
   Zn3    0.00364    0.00301    0.00306    0.00026    0.00014    0.00038
   Zn4    0.00364    0.00301    0.00306    0.00026   -0.00014   -0.00038
   Zn5    0.00364    0.00301    0.00306   -0.00026    0.00014   -0.00038
   Zn6    0.00364    0.00301    0.00306   -0.00026   -0.00014    0.00038
   Zn7    0.00364    0.00301    0.00306    0.00026    0.00014    0.00038
   Zn8    0.00364    0.00301    0.00306    0.00026   -0.00014   -0.00038
   Sb1    0.00187    0.00190    0.00194   -0.00003   -0.00002    0.00001
   Sb2    0.00187    0.00190    0.00194   -0.00003    0.00002   -0.00001
   Sb3    0.00187    0.00190    0.00194    0.00003   -0.00002   -0.00001
   Sb4    0.00187    0.00190    0.00194    0.00003    0.00002    0.00001
   Sb5    0.00187    0.00190    0.00194   -0.00003   -0.00002    0.00001
   Sb6    0.00187    0.00190    0.00194   -0.00003    0.00002   -0.00001
   Sb7    0.00187    0.00190    0.00194    0.00003   -0.00002   -0.00001
   Sb8    0.00187    0.00190    0.00194    0.00003    0.00002    0.00001
